<?xml version='1.0' encoding='us-ascii'?>
<additional xmlns:xsi="http://www.w3.org/2001/XMLSchema-instance" xsi:noNamespaceSchemaLocation="http://sumo.dlr.de/xsd/additional_file.xsd">
	<poly id="building-simple-0_0" type="building" fill="1" layer="-1.0" color="128,128,128" shape="5.0,5.0 95.0,5.0 95.0,95.0 5.0,95.0 5.0,5.0" />
	<poly id="building-simple-0_1" type="building" fill="1" layer="-1.0" color="128,128,128" shape="5.0,105.0 95.0,105.0 95.0,195.0 5.0,195.0 5.0,105.0" />
	<poly id="building-simple-0_2" type="building" fill="1" layer="-1.0" color="128,128,128" shape="5.0,205.0 95.0,205.0 95.0,295.0 5.0,295.0 5.0,205.0" />
	<poly id="building-simple-0_3" type="building" fill="1" layer="-1.0" color="128,128,128" shape="5.0,305.0 95.0,305.0 95.0,395.0 5.0,395.0 5.0,305.0" />
	<poly id="building-simple-1_0" type="building" fill="1" layer="-1.0" color="128,128,128" shape="105.0,5.0 195.0,5.0 195.0,95.0 105.0,95.0 105.0,5.0" />
	<poly id="building-simple-1_1" type="building" fill="1" layer="-1.0" color="128,128,128" shape="105.0,105.0 195.0,105.0 195.0,195.0 105.0,195.0 105.0,105.0" />
	<poly id="building-simple-1_2" type="building" fill="1" layer="-1.0" color="128,128,128" shape="105.0,205.0 195.0,205.0 195.0,295.0 105.0,295.0 105.0,205.0" />
	<poly id="building-simple-1_3" type="building" fill="1" layer="-1.0" color="128,128,128" shape="105.0,305.0 195.0,305.0 195.0,395.0 105.0,395.0 105.0,305.0" />
	<poly id="building-simple-2_0" type="building" fill="1" layer="-1.0" color="128,128,128" shape="205.0,5.0 295.0,5.0 295.0,95.0 205.0,95.0 205.0,5.0" />
	<poly id="building-simple-2_1" type="building" fill="1" layer="-1.0" color="128,128,128" shape="205.0,105.0 295.0,105.0 295.0,195.0 205.0,195.0 205.0,105.0" />
	<poly id="building-simple-2_2" type="building" fill="1" layer="-1.0" color="128,128,128" shape="205.0,205.0 295.0,205.0 295.0,295.0 205.0,295.0 205.0,205.0" />
	<poly id="building-simple-2_3" type="building" fill="1" layer="-1.0" color="128,128,128" shape="205.0,305.0 295.0,305.0 295.0,395.0 205.0,395.0 205.0,305.0" />
	<poly id="building-simple-3_0" type="building" fill="1" layer="-1.0" color="128,128,128" shape="305.0,5.0 395.0,5.0 395.0,95.0 305.0,95.0 305.0,5.0" />
	<poly id="building-simple-3_1" type="building" fill="1" layer="-1.0" color="128,128,128" shape="305.0,105.0 395.0,105.0 395.0,195.0 305.0,195.0 305.0,105.0" />
	<poly id="building-simple-3_2" type="building" fill="1" layer="-1.0" color="128,128,128" shape="305.0,205.0 395.0,205.0 395.0,295.0 305.0,295.0 305.0,205.0" />
	<poly id="building-simple-3_3" type="building" fill="1" layer="-1.0" color="128,128,128" shape="305.0,305.0 395.0,305.0 395.0,395.0 305.0,395.0 305.0,305.0" />
</additional>