<?xml version='1.0' encoding='us-ascii'?>
<additional xmlns:xsi="http://www.w3.org/2001/XMLSchema-instance" xsi:noNamespaceSchemaLocation="http://sumo.dlr.de/xsd/additional_file.xsd">
	<poly id="building-00_00" type="building" fill="1" layer="-1.0" color="128,128,128" shape="10.0,10.0 122.5,10.0 122.5,122.5 10.0,122.5 10.0,10.0" height="16.205" />
	<poly id="building-00_01" type="building" fill="1" layer="-1.0" color="128,128,128" shape="10.0,132.5 122.5,132.5 122.5,245.0 10.0,245.0 10.0,132.5" height="12.541" />
	<poly id="building-00_02" type="building" fill="1" layer="-1.0" color="128,128,128" shape="10.0,255.0 122.5,255.0 122.5,367.5 10.0,367.5 10.0,255.0" height="14.229" />
	<poly id="building-00_03" type="building" fill="1" layer="-1.0" color="128,128,128" shape="10.0,377.5 122.5,377.5 122.5,490.0 10.0,490.0 10.0,377.5" height="18.859" />
	<poly id="building-01_00" type="building" fill="1" layer="-1.0" color="128,128,128" shape="132.5,10.0 245.0,10.0 245.0,122.5 132.5,122.5 132.5,10.0" height="12.222" />
	<poly id="building-01_01" type="building" fill="1" layer="-1.0" color="128,128,128" shape="132.5,132.5 245.0,132.5 245.0,245.0 132.5,245.0 132.5,132.5" height="13.554" />
	<poly id="building-01_02" type="building" fill="1" layer="-1.0" color="128,128,128" shape="132.5,255.0 245.0,255.0 245.0,367.5 132.5,367.5 132.5,255.0" height="12.506" />
	<poly id="building-01_03" type="building" fill="1" layer="-1.0" color="128,128,128" shape="132.5,377.5 245.0,377.5 245.0,490.0 132.5,490.0 132.5,377.5" height="13.205" />
	<poly id="building-02_00" type="building" fill="1" layer="-1.0" color="128,128,128" shape="255.0,10.0 367.5,10.0 367.5,122.5 255.0,122.5 255.0,10.0" height="15.088" />
	<poly id="building-02_01" type="building" fill="1" layer="-1.0" color="128,128,128" shape="255.0,132.5 367.5,132.5 367.5,245.0 255.0,245.0 255.0,132.5" height="18.913" />
	<poly id="building-02_02" type="building" fill="1" layer="-1.0" color="128,128,128" shape="255.0,255.0 367.5,255.0 367.5,367.5 255.0,367.5 255.0,255.0" height="18.556" />
	<poly id="building-02_03" type="building" fill="1" layer="-1.0" color="128,128,128" shape="255.0,377.5 367.5,377.5 367.5,490.0 255.0,490.0 255.0,377.5" height="10.358" />
	<poly id="building-03_00" type="building" fill="1" layer="-1.0" color="128,128,128" shape="377.5,10.0 490.0,10.0 490.0,122.5 377.5,122.5 377.5,10.0" height="12.365" />
	<poly id="building-03_01" type="building" fill="1" layer="-1.0" color="128,128,128" shape="377.5,132.5 490.0,132.5 490.0,245.0 377.5,245.0 377.5,132.5" height="12.084" />
	<poly id="building-03_02" type="building" fill="1" layer="-1.0" color="128,128,128" shape="377.5,255.0 490.0,255.0 490.0,367.5 377.5,367.5 377.5,255.0" height="14.517" />
	<poly id="building-03_03" type="building" fill="1" layer="-1.0" color="128,128,128" shape="377.5,377.5 490.0,377.5 490.0,490.0 377.5,490.0 377.5,377.5" height="14.847" />
	<poly id="building-00_10" type="building" fill="1" layer="-1.0" color="128,128,128" shape="10.0,510.0 122.5,510.0 122.5,622.5 10.0,622.5 10.0,510.0" height="14.534" />
	<poly id="building-00_11" type="building" fill="1" layer="-1.0" color="128,128,128" shape="10.0,632.5 122.5,632.5 122.5,745.0 10.0,745.0 10.0,632.5" height="13.172" />
	<poly id="building-00_12" type="building" fill="1" layer="-1.0" color="128,128,128" shape="10.0,755.0 122.5,755.0 122.5,867.5 10.0,867.5 10.0,755.0" height="12.237" />
	<poly id="building-00_13" type="building" fill="1" layer="-1.0" color="128,128,128" shape="10.0,877.5 122.5,877.5 122.5,990.0 10.0,990.0 10.0,877.5" height="11.680" />
	<poly id="building-01_10" type="building" fill="1" layer="-1.0" color="128,128,128" shape="132.5,510.0 245.0,510.0 245.0,622.5 132.5,622.5 132.5,510.0" height="12.902" />
	<poly id="building-01_11" type="building" fill="1" layer="-1.0" color="128,128,128" shape="132.5,632.5 245.0,632.5 245.0,745.0 132.5,745.0 132.5,632.5" height="16.418" />
	<poly id="building-01_12" type="building" fill="1" layer="-1.0" color="128,128,128" shape="132.5,755.0 245.0,755.0 245.0,867.5 132.5,867.5 132.5,755.0" height="10.126" />
	<poly id="building-01_13" type="building" fill="1" layer="-1.0" color="128,128,128" shape="132.5,877.5 245.0,877.5 245.0,990.0 132.5,990.0 132.5,877.5" height="17.329" />
	<poly id="building-02_10" type="building" fill="1" layer="-1.0" color="128,128,128" shape="255.0,510.0 367.5,510.0 367.5,622.5 255.0,622.5 255.0,510.0" height="10.543" />
	<poly id="building-02_11" type="building" fill="1" layer="-1.0" color="128,128,128" shape="255.0,632.5 367.5,632.5 367.5,745.0 255.0,745.0 255.0,632.5" height="13.154" />
	<poly id="building-02_12" type="building" fill="1" layer="-1.0" color="128,128,128" shape="255.0,755.0 367.5,755.0 367.5,867.5 255.0,867.5 255.0,755.0" height="17.731" />
	<poly id="building-02_13" type="building" fill="1" layer="-1.0" color="128,128,128" shape="255.0,877.5 367.5,877.5 367.5,990.0 255.0,990.0 255.0,877.5" height="19.175" />
	<poly id="building-03_10" type="building" fill="1" layer="-1.0" color="128,128,128" shape="377.5,510.0 490.0,510.0 490.0,622.5 377.5,622.5 377.5,510.0" height="11.840" />
	<poly id="building-03_11" type="building" fill="1" layer="-1.0" color="128,128,128" shape="377.5,632.5 490.0,632.5 490.0,745.0 377.5,745.0 377.5,632.5" height="16.435" />
	<poly id="building-03_12" type="building" fill="1" layer="-1.0" color="128,128,128" shape="377.5,755.0 490.0,755.0 490.0,867.5 377.5,867.5 377.5,755.0" height="12.916" />
	<poly id="building-03_13" type="building" fill="1" layer="-1.0" color="128,128,128" shape="377.5,877.5 490.0,877.5 490.0,990.0 377.5,990.0 377.5,877.5" height="17.380" />
	<poly id="building-10_00" type="building" fill="1" layer="-1.0" color="128,128,128" shape="510.0,10.0 622.5,10.0 622.5,122.5 510.0,122.5 510.0,10.0" height="18.996" />
	<poly id="building-10_01" type="building" fill="1" layer="-1.0" color="128,128,128" shape="510.0,132.5 622.5,132.5 622.5,245.0 510.0,245.0 510.0,132.5" height="11.303" />
	<poly id="building-10_02" type="building" fill="1" layer="-1.0" color="128,128,128" shape="510.0,255.0 622.5,255.0 622.5,367.5 510.0,367.5 510.0,255.0" height="17.366" />
	<poly id="building-10_03" type="building" fill="1" layer="-1.0" color="128,128,128" shape="510.0,377.5 622.5,377.5 622.5,490.0 510.0,490.0 510.0,377.5" height="19.148" />
	<poly id="building-11_00" type="building" fill="1" layer="-1.0" color="128,128,128" shape="632.5,10.0 745.0,10.0 745.0,122.5 632.5,122.5 632.5,10.0" height="12.854" />
	<poly id="building-11_01" type="building" fill="1" layer="-1.0" color="128,128,128" shape="632.5,132.5 745.0,132.5 745.0,245.0 632.5,245.0 632.5,132.5" height="15.131" />
	<poly id="building-11_02" type="building" fill="1" layer="-1.0" color="128,128,128" shape="632.5,255.0 745.0,255.0 745.0,367.5 632.5,367.5 632.5,255.0" height="18.245" />
	<poly id="building-11_03" type="building" fill="1" layer="-1.0" color="128,128,128" shape="632.5,377.5 745.0,377.5 745.0,490.0 632.5,490.0 632.5,377.5" height="17.287" />
	<poly id="building-12_00" type="building" fill="1" layer="-1.0" color="128,128,128" shape="755.0,10.0 867.5,10.0 867.5,122.5 755.0,122.5 755.0,10.0" height="11.952" />
	<poly id="building-12_01" type="building" fill="1" layer="-1.0" color="128,128,128" shape="755.0,132.5 867.5,132.5 867.5,245.0 755.0,245.0 755.0,132.5" height="10.444" />
	<poly id="building-12_02" type="building" fill="1" layer="-1.0" color="128,128,128" shape="755.0,255.0 867.5,255.0 867.5,367.5 755.0,367.5 755.0,255.0" height="17.374" />
	<poly id="building-12_03" type="building" fill="1" layer="-1.0" color="128,128,128" shape="755.0,377.5 867.5,377.5 867.5,490.0 755.0,490.0 755.0,377.5" height="15.947" />
	<poly id="building-13_00" type="building" fill="1" layer="-1.0" color="128,128,128" shape="877.5,10.0 990.0,10.0 990.0,122.5 877.5,122.5 877.5,10.0" height="18.490" />
	<poly id="building-13_01" type="building" fill="1" layer="-1.0" color="128,128,128" shape="877.5,132.5 990.0,132.5 990.0,245.0 877.5,245.0 877.5,132.5" height="13.505" />
	<poly id="building-13_02" type="building" fill="1" layer="-1.0" color="128,128,128" shape="877.5,255.0 990.0,255.0 990.0,367.5 877.5,367.5 877.5,255.0" height="14.279" />
	<poly id="building-13_03" type="building" fill="1" layer="-1.0" color="128,128,128" shape="877.5,377.5 990.0,377.5 990.0,490.0 877.5,490.0 877.5,377.5" height="10.089" />
	<poly id="building-10_10" type="building" fill="1" layer="-1.0" color="128,128,128" shape="510.0,510.0 622.5,510.0 622.5,622.5 510.0,622.5 510.0,510.0" height="11.329" />
	<poly id="building-10_11" type="building" fill="1" layer="-1.0" color="128,128,128" shape="510.0,632.5 622.5,632.5 622.5,745.0 510.0,745.0 510.0,632.5" height="14.964" />
	<poly id="building-10_12" type="building" fill="1" layer="-1.0" color="128,128,128" shape="510.0,755.0 622.5,755.0 622.5,867.5 510.0,867.5 510.0,755.0" height="12.117" />
	<poly id="building-10_13" type="building" fill="1" layer="-1.0" color="128,128,128" shape="510.0,877.5 622.5,877.5 622.5,990.0 510.0,990.0 510.0,877.5" height="11.363" />
	<poly id="building-11_10" type="building" fill="1" layer="-1.0" color="128,128,128" shape="632.5,510.0 745.0,510.0 745.0,622.5 632.5,622.5 632.5,510.0" height="17.597" />
	<poly id="building-11_11" type="building" fill="1" layer="-1.0" color="128,128,128" shape="632.5,632.5 745.0,632.5 745.0,745.0 632.5,745.0 632.5,632.5" height="19.124" />
	<poly id="building-11_12" type="building" fill="1" layer="-1.0" color="128,128,128" shape="632.5,755.0 745.0,755.0 745.0,867.5 632.5,867.5 632.5,755.0" height="14.547" />
	<poly id="building-11_13" type="building" fill="1" layer="-1.0" color="128,128,128" shape="632.5,877.5 745.0,877.5 745.0,990.0 632.5,990.0 632.5,877.5" height="10.791" />
	<poly id="building-12_10" type="building" fill="1" layer="-1.0" color="128,128,128" shape="755.0,510.0 867.5,510.0 867.5,622.5 755.0,622.5 755.0,510.0" height="16.578" />
	<poly id="building-12_11" type="building" fill="1" layer="-1.0" color="128,128,128" shape="755.0,632.5 867.5,632.5 867.5,745.0 755.0,745.0 755.0,632.5" height="13.593" />
	<poly id="building-12_12" type="building" fill="1" layer="-1.0" color="128,128,128" shape="755.0,755.0 867.5,755.0 867.5,867.5 755.0,867.5 755.0,755.0" height="10.295" />
	<poly id="building-12_13" type="building" fill="1" layer="-1.0" color="128,128,128" shape="755.0,877.5 867.5,877.5 867.5,990.0 755.0,990.0 755.0,877.5" height="12.924" />
	<poly id="building-13_10" type="building" fill="1" layer="-1.0" color="128,128,128" shape="877.5,510.0 990.0,510.0 990.0,622.5 877.5,622.5 877.5,510.0" height="15.502" />
	<poly id="building-13_11" type="building" fill="1" layer="-1.0" color="128,128,128" shape="877.5,632.5 990.0,632.5 990.0,745.0 877.5,745.0 877.5,632.5" height="12.182" />
	<poly id="building-13_12" type="building" fill="1" layer="-1.0" color="128,128,128" shape="877.5,755.0 990.0,755.0 990.0,867.5 877.5,867.5 877.5,755.0" height="14.312" />
	<poly id="building-13_13" type="building" fill="1" layer="-1.0" color="128,128,128" shape="877.5,877.5 990.0,877.5 990.0,990.0 877.5,990.0 877.5,877.5" height="14.606" />
</additional>