<?xml version="1.0" encoding="UTF-8"?>
<!-- generated on 2023-01-30 04:28:46.511741 by $Id$ v1_8_0+0044-4820708f3d
  options: -n drones.net.xml -b 0 -e 60 -p 1 <doubleminus>random -i 64 -o drones.trips.xml
-->
<routes>
    <trip id="0" depart="0.00" from="C6C5" to="J7J8" via="H3H2 C5B5 H9I9 A4A3 D8D7 J5I5 F7F6 C8D8 E4E5 B0C0 B6C6 E3D3 I5J5 F2G2 A5A4 A3A2 G6H6 D0C0 C0C1 C7C8 E3F3 G1F1 B3C3 H5H6 F0F1 A3B3 C0B0 J3J2 H7I7 H4I4 C7D7 J2J1 J7J6 G0H0 I3J3 H8G8 I5I6 H3H2 G5H5 I0H0 B3A3 C7B7 A4A5 A5B5 B5A5 G6G7 C9B9 C7D7 E5F5 I7I6 I4H4 B1C1 E4F4 A6A7 D4E4 F7F8 C5D5 F3F2 J7J8 A6A7 F0G0 E1F1 F1G1 A3B3" />
    <trip id="1" depart="1.00" from="J1J2" to="B8A8" via="J9I9 J1J2 B0B1 J0I0 A3B3 A7A8 F8F9 E9E8 D1D2 C1B1 H7H6 D9E9 J7J6 G2G1 J3J2 B4A4 G5H5 I2I1 F0E0 G4G3 C0B0 F4F5 I7J7 A8B8 F2G2 G9F9 J5I5 A0A1 A8A7 H4H3 B6C6 D0D1 I6I5 E1E0 H2I2 C1B1 A0B0 B9C9 H4G4 E2F2 B8B7 B2A2 F8F9 H8H9 J9J8 H3H4 I8J8 F1E1 H5H4 E5F5 D8E8 C6C5 B5C5 G3F3 C3C4 D8C8 E8D8 G2H2 H6H7 A2B2 F7F8 A9B9 F5F6 D4D5" />
    <trip id="2" depart="2.00" from="H1I1" to="C2B2" via="F2F1 H3I3 B7B6 H6H7 C5B5 G4G5 I4I5 B8C8 A0B0 C0B0 C4B4 D8D9 A7A8 H2H3 E6F6 F3F4 B2C2 G3F3 B8B7 H2H3 C3C4 F5G5 G5H5 F4F5 A2B2 F6F5 C1C0 C7B7 H6H5 I4I3 C8C9 B4C4 F9G9 G6G7 E4D4 F8G8 H9H8 I4I3 I3I2 C7C6 C7C6 I9H9 F5E5 B6A6 H2H1 D9C9 C4C5 B4A4 D3D4 E1D1 I1I2 D9D8 G4F4 G2G3 D5C5 I8I7 G1H1 H2H1 B1B2 I0H0 A8B8 I2J2 H9H8 G4G5" />
    <trip id="3" depart="3.00" from="E2D2" to="D3C3" via="B3C3 J2J3 E3D3 H4H5 D2E2 J8J9 B3B2 H6G6 D5E5 I5J5 G0G1 F5G5 D7C7 G2G1 H2H3 A9B9 A0B0 A3A2 C9C8 I6J6 F9F8 G8F8 J5I5 H4I4 F4E4 G6G5 H4G4 G6G7 G9G8 I6I7 D5E5 I5H5 B9C9 E4F4 G4F4 I2H2 I2I3 A1A0 B0B1 A0A1 H4H3 G7H7 G9G8 C4C3 B4B3 B7B6 B0C0 H7H8 J7J8 C3C2 D2D1 F3F2 I5I4 A4A3 J8J7 G5F5 H1H0 B3A3 I0J0 F4G4 G8F8 H2H3 A3A4 F6F7" />
    <trip id="4" depart="4.00" from="A1B1" to="H4H5" via="F2G2 B5C5 E6F6 G9H9 J3I3 H8H9 B8B9 D7E7 E3D3 H5H6 D2D1 A1A0 I8I7 I3J3 I6I5 E4F4 G1F1 J0I0 H8G8 J2J3 F8E8 E7F7 E1E0 A2A1 H7H8 I1H1 A7A8 G3H3 G1H1 A6A7 A6B6 E9E8 I2H2 G7F7 C5C6 J5J6 G5G4 F4F5 A2A3 D5D4 B4B5 D3E3 I7I8 C2B2 A5A4 D1E1 E6F6 C9D9 G2H2 C3D3 I9H9 B5B4 J3I3 E2E3 D7D6 I4J4 D2C2 G8F8 B3B4 D6E6 G8F8 G7H7 C8B8 J7I7" />
    <trip id="5" depart="5.00" from="E1E0" to="C4B4" via="C3C4 J8J9 A2A3 E8D8 A6A7 A7A8 C1C2 D3E3 D3C3 F2G2 E0D0 F6F5 E0E1 B2C2 E0E1 A1A0 F1G1 D7D6 C7C6 I2I1 G8F8 B4B5 D7C7 D4E4 D2D1 I6I5 C6C5 H2H3 A9A8 F0G0 E0E1 G3H3 D3E3 E4E3 C0D0 D6E6 H2H1 C4C3 H4H5 I7H7 D1E1 F4G4 E3E4 G6H6 J2J3 H8I8 I4I5 I9J9 E2F2 I9I8 A8A7 E6E7 J0J1 B6C6 F2G2 I2H2 G5G6 I8J8 J6J5 H3H2 E7F7 H7H8 B7C7 H1I1" />
    <trip id="6" depart="6.00" from="G3G4" to="B2A2" via="H8H9 G1F1 H4H5 J1J0 H3H4 G3F3 G4G3 F3E3 C7C6 D4C4 A7A8 H9I9 H2H1 J6J5 A3A2 I2I1 A3A2 C3C2 A3B3 G8H8 A7A6 H7H6 H3I3 E7D7 E1E0 C6C7 A4B4 E6E7 E9F9 D5D4 G4F4 C1C0 B4B3 D5C5 A3B3 H6H5 J5J4 D7D6 E9D9 I1I0 B1B2 D9C9 A3B3 I8H8 D6C6 C0D0 B6C6 I9J9 E6E7 A9A8 I5I6 G8G7 I3I4 C0D0 E4E3 F3F2 J2J1 E9E8 C6C7 A3A2 H8H9 E7F7 G3G4 I9H9" />
    <trip id="7" depart="7.00" from="C5D5" to="J5J4" via="F8E8 I7I8 G4H4 G2G3 G1F1 F7F8 I5J5 E7F7 J8I8 H9G9 D3E3 F3E3 J8I8 H1H2 E6F6 J8J7 G6H6 C6C5 E5E6 I7I8 G0G1 B8B7 I2H2 A7B7 F1G1 H3H2 F1F2 H8I8 D2E2 E8E7 D8D7 A0A1 C1C2 B0C0 A9B9 I3J3 G1G0 F2G2 E5E4 G6F6 J1J2 G4G5 C7D7 B5B6 G2H2 F6F5 C5D5 A8A9 D7D6 A1B1 G1H1 C7D7 H6G6 I4J4 C2C3 C1C2 G1G2 A0A1 I3H3 H0H1 G8H8 A1A2 J4I4 C8B8" />
    <trip id="8" depart="8.00" from="D2D1" to="F6F7" via="H5G5 D9C9 D7D8 C4C3 G4G5 G9F9 J8J9 H8G8 B2A2 H4I4 B3B2 H8I8 G0G1 F3F4 I3J3 I1I2 B0A0 E5E4 F8E8 C3B3 B2B3 I5I4 D8E8 J4I4 F6G6 F4F3 C0B0 B9A9 C6C7 I3H3 G8G9 D0D1 D1C1 F6G6 F6F7 F7G7 F0G0 D5E5 F3G3 A5A6 C4B4 D1E1 J7J6 J5J4 G8G7 A1A2 B3A3 J1J2 B2C2 C8B8 E0D0 I9J9 A2A3 D4E4 J6J5 B9A9 H8H7 I3I4 E0D0 D6C6 B4C4 C8B8 I0H0 A4A5" />
    <trip id="9" depart="9.00" from="I8I9" to="I3I4" via="J0I0 E7E8 B9A9 J4I4 F3F2 G8H8 D1D0 H5H6 B9C9 G8F8 I7I6 E3E4 I3H3 E5E4 B2B1 I8J8 F8F9 B5C5 J8I8 E2E1 D1D0 I4I3 H3H2 I7J7 I0J0 B5C5 G3H3 D0C0 C8C7 H3H4 A6A5 A9B9 B0B1 I0H0 F9F8 J8J7 I6I5 G4F4 A9B9 D1E1 B7B8 A2A1 D1E1 G0H0 E6F6 A9B9 G5G4 I9I8 A1A2 B3B2 D6D7 A7A6 E4F4 G8F8 A7B7 E2F2 H3H2 G9F9 H9I9 H7H6 G4G5 D5C5 F6F7 C8B8" />
    <trip id="10" depart="10.00" from="E6D6" to="G9H9" via="F7F6 F2G2 G5F5 F4G4 D0C0 E1D1 E2D2 J8I8 E5E6 J6J5 H0I0 A5A4 A9A8 G3F3 I6I5 H3H4 D4D3 G5F5 G0H0 C7C6 H7I7 J8J7 A1B1 D9E9 H4I4 A2A3 A2A1 H9H8 H1H0 J0I0 C0C1 H2I2 I7J7 I1J1 C2B2 C1C2 J6J5 B1C1 E7F7 E5E6 D8D9 E8E9 B2B1 G9F9 B4A4 F7E7 G8F8 G1F1 B3B4 F2G2 G9H9 J7J8 F7E7 B9B8 B6B5 I5I6 F1F2 B7B6 B3C3 E3D3 E0D0 D8D9 D1E1 G2G3" />
    <trip id="11" depart="11.00" from="I0I1" to="I8J8" via="F4G4 G2H2 G4G5 H4H3 D4C4 G7G6 B5C5 E4E5 F8E8 I7H7 J9J8 C0B0 C6B6 F0F1 D9C9 I7J7 D9C9 B1C1 B4B5 E5E4 G3H3 B4A4 H4H3 J6J7 G9G8 H9I9 B3A3 H8I8 C7B7 F2F3 I5I6 B6B5 D6E6 I3H3 E8E9 H7H8 B3B2 A2A1 A2B2 I5H5 B4C4 C9D9 I2J2 F5F4 D1E1 A8A7 I9I8 C8C7 J9J8 F7E7 I2J2 D2E2 J9I9 F1F2 J5I5 J5J4 I6J6 J3I3 J8J7 E1E2 E0E1 J2J3 I2I1 A4B4" />
    <trip id="12" depart="12.00" from="D5D4" to="G2G3" via="I5H5 F2F1 H6H5 E9F9 C6D6 C3C4 G5F5 E4E5 D0C0 H7H6 I7J7 H8H7 C5B5 D2D1 G4H4 F8F7 F1E1 F2F3 E1E0 G6H6 F5F6 F1G1 G7G6 B8A8 E8E9 G3F3 F1F2 I3H3 B5B6 E7E6 H1H0 H2H3 H0H1 J8J7 E8E7 D5D6 A3A4 H6G6 D3E3 J1J0 F8E8 D0E0 E8E7 A6A7 G0H0 C7C8 G2G3 F2G2 I2I3 B3A3 H1G1 E1E2 F4F3 F7F6 F6E6 J9I9 B3B4 C8B8 F2F3 F2G2 C8D8 I9J9 H0H1 H6G6" />
    <trip id="13" depart="13.00" from="E8F8" to="C2C3" via="E5E4 J3J2 C4B4 C7B7 D2D3 F4F5 D0E0 G7G6 G4G5 H9G9 C9B9 H8G8 D8D9 B4A4 E1F1 F0G0 B5C5 E2E3 G2F2 G8H8 F8G8 C1B1 I1H1 C8C9 J5J6 H9I9 B6A6 I6I7 B6C6 E2F2 E8E9 F4E4 F1F2 A0B0 B4B3 E1D1 J1I1 F6F7 H3G3 F6G6 B3A3 B6C6 H0I0 H5G5 C2C1 I7I8 H1H2 G9G8 J8J7 G8H8 B5C5 J9J8 E7D7 J1J0 E5F5 E7E6 A3B3 J0J1 B6B5 I6H6 G6G5 D5D4 E3E2 B8A8" />
    <trip id="14" depart="14.00" from="F2F3" to="A8B8" via="E4E5 F3E3 H6H5 I6J6 A1A0 B9C9 B1C1 F1E1 A6A7 H4I4 F4F5 G2G3 E5E6 B1A1 F8F9 A5A6 F6F5 A4A3 G7G6 D5D4 H8G8 E1F1 J0I0 F6G6 G7H7 C4D4 D2D3 F3G3 D8D9 B2A2 A0B0 C0C1 H6G6 F9E9 H3G3 A5A4 I1I2 G2F2 J4J5 F0F1 B9A9 C8C9 G7H7 B9A9 B8B9 E8D8 H4H5 I4H4 A1A2 B2C2 F0E0 I6H6 D0D1 C8C7 B1C1 I9H9 G1G2 J4J5 I6J6 J6J7 E0E1 C1C2 E4F4 F9E9" />
    <trip id="15" depart="15.00" from="I8H8" to="B2A2" via="I2J2 C0B0 J1J0 I5I6 I1J1 G8G9 J0I0 B9B8 G0H0 J8J9 B1C1 F1G1 B2C2 C2B2 E6D6 A3A2 G6F6 G9F9 H8H7 B3A3 J3J4 B5B6 D6C6 B6B7 F2F3 C8B8 A3A4 A8A9 B6C6 C4C3 D4D5 H1G1 I8I9 F1G1 D8C8 H1I1 C4C5 C6C5 B7A7 C9C8 B4A4 A3A2 I3H3 I3I4 H9G9 C1C0 G3G2 J2I2 J5J4 E5E6 D7D8 G5G4 I5I6 D3C3 F1E1 E1E0 I1J1 G7G8 G9G8 F1F0 H4H5 A1B1 E3E4 E1E0" />
    <trip id="16" depart="16.00" from="H7H8" to="D6C6" via="H4I4 E1D1 I6I5 J1J2 B6C6 C6D6 D2C2 G9F9 I5I6 D4C4 C2C1 G9H9 A7A6 D7E7 G2H2 I4J4 C9D9 D3C3 C4C5 C8C9 F7E7 G5F5 H5H4 D9E9 J5J4 D2C2 C1C2 F1F2 E0D0 G2G1 F8E8 F9G9 E1D1 F7F8 J7I7 E2F2 A8B8 H3H2 H8I8 F8F9 I3I4 I0H0 G7F7 E4E5 J2I2 B8A8 B3A3 H8H7 B1B0 H6H7 A9A8 D5E5 B7B6 J4J3 B5B4 I5I6 G4G3 B1C1 J4J3 F2F1 J6J7 C8C7 I5I4 G6H6" />
    <trip id="17" depart="17.00" from="F2E2" to="D4D5" via="E5E4 J0I0 C0B0 A5A4 J0J1 G1G0 J4J5 C5C6 B3A3 I4J4 G4F4 C1C2 A4B4 B7C7 C7C8 B1C1 A7A6 E8E9 I3H3 C5B5 D2E2 B8C8 H2H3 F9G9 A9B9 C6C5 G1F1 F0G0 C8D8 E2E3 H3I3 H6G6 G4H4 B3B4 B2B3 I0J0 D6D7 A6A5 H4G4 I0J0 E1E2 G1G2 D5C5 B7B8 G5H5 I1H1 A6A7 G5H5 G7F7 A3A4 A1A0 C5D5 A5A4 C1C0 B2B3 D1E1 I8J8 E2D2 G3H3 E6F6 E2D2 B9C9 D5D4 D3D4" />
    <trip id="18" depart="18.00" from="C2C1" to="E1E2" via="J7J8 E2E1 G5G6 B4A4 I5H5 F1E1 H5H4 A1A0 A0A1 A6A5 D0C0 C7D7 G8G7 B7C7 E1F1 D8E8 H9I9 D7C7 H6H7 J8I8 G7F7 I0H0 F9G9 B1B0 D3C3 B9A9 C2B2 C2C1 A7A8 H4H5 H5I5 E7E8 I8I9 B9C9 A7B7 D0E0 D7E7 J3J2 G0F0 I4I3 A2A1 D9C9 F2E2 D6D5 I8I9 D0E0 G2H2 I0I1 G1G0 I7I8 H7I7 I2I3 B3B4 H2H1 J1J2 B4B5 I3J3 B9C9 J7I7 J5I5 B8A8 D5D4 C2D2 D6D7" />
    <trip id="19" depart="19.00" from="I9J9" to="I4I3" via="A6A7 J4I4 E6E7 F1F0 D2D3 C0C1 D9D8 C3B3 G8F8 H7H8 J5J6 I3I4 G0G1 E1D1 E9D9 H4G4 A3A4 J8I8 F7F8 I3I4 A3A2 B4A4 J8I8 H6H5 C3C2 A3A2 I2J2 D1D0 E5D5 C5B5 H3G3 D7D8 I4J4 A2A3 F4E4 D7E7 F9E9 B5C5 F5G5 A2A3 H2G2 I7I8 B4C4 E9F9 H4H5 B8C8 D5E5 F8F7 D8C8 E3D3 H8G8 H4G4 E8E7 G2G3 I5I4 F6F7 G6G5 A9B9 C1B1 E7E8 B8B9 F2E2 I1I2 J7J6" />
    <trip id="20" depart="20.00" from="D3D4" to="I2I1" via="H5G5 D5E5 G3F3 G3G2 C7C8 C9B9 A6B6 I6H6 H2H3 A4A3 H3H4 B1C1 F2F3 I8I9 E1E2 C8D8 E4E5 B2B3 H9I9 D4E4 D3D2 F8G8 E1E0 G3F3 G4G3 G1F1 A6A5 E8E7 C0C1 F9E9 I1H1 E2F2 H7H8 D7C7 E1D1 H8G8 C6C5 F8G8 I5J5 B2B1 G9H9 I4J4 D2C2 I1H1 J8J7 D4E4 C2B2 G6G5 H6H5 C4C5 F4E4 D8D9 E4E5 D7E7 G7F7 B2C2 E8D8 G1H1 D8D9 D4D5 H1G1 F4E4 J4I4 B2A2" />
    <trip id="21" depart="21.00" from="D4D5" to="C8C9" via="C3C2 F5E5 H5I5 E5F5 G5G6 C8C7 J7J8 G6H6 F4E4 H8G8 H7H8 F4E4 A9A8 G4G3 H8G8 C5C6 A5B5 J7I7 B7B8 C7B7 F3G3 G7G8 F7F8 B0A0 C3C4 D0D1 A4B4 G3G4 C9C8 A0B0 D3E3 A1A2 C6D6 E5D5 D6D5 A4A3 C7C8 B1C1 I3H3 H2H1 I3H3 H2H3 G1F1 E2E1 F9G9 B4B3 F2F3 J9J8 J0I0 B5B6 G1G2 I7I8 D4E4 D7D6 A6A7 J4J5 G8H8 F9G9 E7D7 H1I1 H8G8 A8B8 H7I7 B4B5" />
    <trip id="22" depart="22.00" from="B8B9" to="D0D1" via="J4I4 D8D9 G9G8 C3C2 G6F6 G7H7 A3B3 E3E4 I2I3 G5F5 B5B4 D3E3 C8C7 F1F2 A3B3 C5C4 F7E7 F2F1 I0I1 I0I1 F7F8 E2E3 H1I1 H2H1 H9G9 F6G6 E8E7 D6E6 B4B5 D3C3 G4F4 I0I1 F3G3 H7I7 C9D9 J5J6 C9B9 H3G3 G1H1 H6G6 G6G7 F2G2 F7F8 D8E8 J9I9 G2G3 G2G1 F1E1 H2H3 H6G6 G5H5 E9E8 E5E6 E1D1 C9B9 E4E5 H4G4 E2E1 C8B8 C9B9 I3H3 H1H2 F5F4 G5G6" />
    <trip id="23" depart="23.00" from="G8H8" to="A8A7" via="E2E3 I0H0 E1E2 F5F4 E4F4 E2D2 D7C7 J6J5 F2F3 G3G2 I7J7 I8H8 G7H7 F4F5 D8D9 J0J1 B9A9 A8B8 G3F3 D2E2 C5C6 I5H5 D0D1 D9E9 F0G0 G1G0 D4E4 B5B4 H8H9 B8C8 G5G4 J7J6 B0B1 H5I5 E8F8 I1I2 H1H0 G8F8 B0C0 J6J7 F7F6 C2B2 A3B3 B7C7 E0F0 B8C8 C5D5 I3I2 F5G5 H4I4 G1G2 G3G4 I7I6 F4G4 J0I0 G0G1 J8I8 G6G5 F5F6 D4D5 F3E3 J0I0 C6C5 A6A5" />
    <trip id="24" depart="24.00" from="G0G1" to="B2B3" via="H9H8 B3B2 G8G7 H9I9 H4G4 I8I9 A7A8 F4E4 H1I1 C8B8 C0D0 J7J8 G8G9 E1F1 E1E2 B9C9 I1I0 D8D7 A8A7 A8A9 I6I5 J8J9 I7I6 A8A7 F9G9 C5C4 E6F6 A5B5 I4I3 J8J9 A7A8 D8E8 E4E5 C4D4 C8C7 G8F8 E3E2 C2C3 E5D5 B9C9 D9C9 C3D3 I4J4 B9C9 C6C7 B6A6 J1I1 H4H3 E1F1 J1J2 F6G6 J8I8 C7B7 J4J3 J7I7 I4I5 B5B4 B0C0 B5B4 A4A5 D8D9 D4D3 H3H4 C0C1" />
    <trip id="25" depart="25.00" from="C7C8" to="C1B1" via="B4A4 B6B5 B2B1 G8F8 F1F0 G1F1 E1D1 D7D8 D2E2 C6C5 C7D7 D7D8 J8I8 D7D8 E0D0 G2G3 I6H6 J7I7 H9H8 A9A8 H8I8 D3E3 D3D4 I8H8 G8G9 E3F3 B7B8 E8E7 G0H0 A7A6 H9I9 I3I2 E4E3 D7D6 F4F3 J1J0 F2G2 B8B7 G2H2 G8G9 H0G0 C6D6 H0I0 B4C4 B8A8 F2G2 I0H0 A8B8 F8F7 C8D8 F2F1 I2I1 B6B5 E3F3 A2A3 D2D3 I5J5 E4D4 F2F1 G0G1 H8H9 H3G3 G3F3 A2B2" />
    <trip id="26" depart="26.00" from="C0C1" to="D9D8" via="I8I7 I1J1 C7C6 I2H2 G4F4 C1C2 H8H7 F6G6 B2A2 I3H3 J4J5 I0I1 I6J6 H4G4 A5B5 E5E4 H1G1 J0I0 G4F4 D4D5 G2G1 G4F4 G7G6 D1D2 E8F8 J5J4 B1A1 I2J2 I2H2 C4C3 G6H6 H2I2 F8G8 I3J3 A4B4 E3F3 I6J6 J0I0 A1A0 B0C0 A9A8 E3D3 A2A1 H0H1 C6D6 D3E3 A0A1 F4E4 I1H1 B1B0 C1D1 F5G5 B9A9 C8C7 G1G0 I3I2 C6C5 B0C0 C7C8 H9I9 A6A5 A6A5 D3C3 A6B6" />
    <trip id="27" depart="27.00" from="A7B7" to="B4A4" via="I6J6 E1D1 C4C3 H7H8 H1H2 F7F8 A4A5 C0C1 I7I6 H3I3 B6B5 B8A8 H6H5 G0F0 B2C2 D2D3 D3D4 E0E1 F5F6 A8A7 D3C3 C8B8 A8A7 H7I7 E6E7 G0H0 B1B2 G5H5 B7B8 J9I9 D8D7 B8A8 F3F4 E8F8 H4H5 C1D1 I0J0 F3F2 I2J2 B5A5 B9B8 F1G1 B9A9 C4C5 H2H3 E4E5 E2E3 E2E1 A8B8 H0H1 J0J1 C5B5 A9A8 F7F8 J7J8 E8E9 C5B5 G9F9 C0D0 E0F0 G8F8 J9I9 D0D1 H4H5" />
    <trip id="28" depart="28.00" from="H7I7" to="J4J5" via="G6G7 F0E0 E5D5 E9D9 G9H9 I6I5 A7A8 I0I1 I1I0 B0A0 D1D0 B5A5 B7C7 J2J1 D5E5 J6I6 A4A5 G3G2 A2A3 J4J3 I6I5 G0F0 F5F4 B3B2 A8B8 F5F6 D6E6 C2B2 I2H2 B5C5 E2D2 F9G9 H9I9 D0C0 C1C2 I3J3 I5J5 H0I0 G3G4 E8E9 C6C5 B2B1 A1A2 C3D3 G0F0 G3H3 A6A7 F9G9 C7D7 C1C2 J0I0 F5E5 F7G7 B4A4 F0E0 C5C4 H1H0 A4B4 E0E1 H2I2 B1B2 B2A2 C2C1 F0G0" />
    <trip id="29" depart="29.00" from="J8J9" to="C5C6" via="F2F1 H1H0 H5I5 E5D5 A1A0 J4I4 I2J2 C4B4 F8F7 G5H5 E8F8 B9A9 E7F7 D3D2 E8D8 F1F2 A9B9 A7B7 A9A8 E7E6 B2C2 G4G3 I1I2 C9D9 H2G2 J3J2 D0C0 J6I6 E8E9 A9B9 C9B9 F9G9 B7C7 E7F7 H1H2 J4I4 J6J7 D3C3 F3G3 D2D3 F3F2 I1I0 I1H1 G6H6 F2E2 E8E7 C2D2 A7A6 J5I5 D9C9 D1E1 I5J5 C3C2 A5B5 H5H4 C5C6 C6B6 B8A8 H4I4 C7C8 D7D8 E5E6 J1J2 J4J5" />
    <trip id="30" depart="30.00" from="B3C3" to="F1F0" via="G7G8 D0E0 D9E9 B3B4 B1B0 A7B7 I5H5 A8B8 D1D2 I7I6 C1C0 H0G0 B6B5 A4B4 G2H2 D1D0 I2I3 C1D1 D3C3 E5E4 C3C2 F3F4 C8B8 H7H8 C4C5 D8D9 A2B2 I6H6 G7F7 F4F3 G7G6 A6A5 I2I3 C3D3 H4H5 F7E7 F6F7 D3D4 H7H6 B7A7 I4H4 E3D3 J3J4 G0G1 G8F8 D3E3 F0E0 I8I9 I3J3 E6D6 I4H4 E8E7 E6E5 G8G9 D1D2 I5I6 C1B1 E8F8 C7B7 D1D0 F9F8 B4B5 G5F5 C7B7" />
    <trip id="31" depart="31.00" from="B9A9" to="J8J7" via="E3E4 J4J3 F8F7 I0J0 B4B3 F2F3 F4E4 C2C3 C6C7 G8H8 J4J5 F8G8 I8I7 I6H6 H7I7 A0A1 G1H1 E8D8 J7I7 H9H8 J9I9 F3E3 H4H5 E6E5 C7B7 D0C0 H7I7 E1F1 C7C6 H0I0 J1J0 H4H5 I1I2 F6G6 H3G3 G3H3 H2I2 B5B4 B3B2 G8G9 A0B0 A2A3 E9F9 C3C2 J7J6 H0G0 I2J2 B4C4 A6A5 B7B6 I4J4 J4I4 J0J1 H1I1 I1H1 B6B7 F5E5 F5G5 G7H7 C5C4 C8B8 H8I8 E3E4 J0J1" />
    <trip id="32" depart="32.00" from="H3I3" to="E5E6" via="J8J9 C9B9 B6C6 D1E1 D2E2 B5A5 D3C3 G6F6 B0C0 I3J3 G2G3 G7F7 H7H6 F3G3 I4I5 G4G3 D9E9 B0B1 C7D7 F0E0 G2F2 I1H1 D5C5 G7G8 B8A8 J0J1 C1C2 J0I0 J3I3 C1C2 I8I7 B6A6 F4E4 C1D1 C5D5 H9I9 B2B1 D4E4 D8D7 I2J2 B7C7 E4E5 D2E2 A6A7 I4H4 G2G3 B4B3 I7H7 B6B5 B2B3 B2B3 A5A4 I5I4 E5E4 H4I4 G8F8 D1C1 A6B6 B9C9 D6D5 A9A8 G1G2 B9C9 E4D4" />
    <trip id="33" depart="33.00" from="F1E1" to="B5C5" via="E6F6 C7D7 H8H7 F7G7 F5F4 G1F1 C2C3 A8A9 F1E1 D8C8 G3G2 A7A8 A5B5 H5H6 I0J0 D9D8 J5J6 C7C8 B7A7 C0D0 G4G5 H5H4 B1C1 C5C4 J5J6 J8J7 F6E6 G8F8 F6E6 H6H5 B0C0 D1C1 F4G4 A8B8 E2D2 D3E3 C6C7 B9B8 D3D4 G8F8 G5H5 H6H7 E9F9 E9F9 J3J4 C6D6 J2J3 J4J5 C9B9 F2E2 G4G3 C7D7 G1G2 C1C0 F2E2 H1I1 A4A3 C0D0 H7G7 B9C9 I8I9 C0B0 I2I1 I7I8" />
    <trip id="34" depart="34.00" from="D5D6" to="E4F4" via="D0C0 F3F2 I3I4 F9F8 I8H8 J9I9 D6E6 D2D3 G6G5 D4C4 F3G3 D8C8 B4A4 A2A3 B8B9 E5E6 G7G6 I0I1 A4A5 G1H1 D9C9 B8A8 F7E7 F8F7 G0G1 A5A6 E3F3 H4H5 I2H2 B6C6 C4C5 D6C6 E7D7 B8C8 G1F1 I6I7 A4A3 E6E5 D1D0 J1J2 I4H4 A3A4 G6G7 J1J2 C3B3 C7C6 I3J3 F7E7 C2C1 F5E5 J5J4 J2I2 J6J5 A2A1 C7D7 D4C4 F2E2 F8F9 F1F2 B7B6 I7I6 G5H5 J9J8 A1B1" />
    <trip id="35" depart="35.00" from="A9B9" to="H1H0" via="B8B7 A5B5 A5B5 G3G2 D4C4 B6B5 H6I6 B6B7 A7A8 F0F1 A7B7 J1J0 I1I0 B4A4 I6H6 J1I1 B0C0 B5B6 E7F7 C7C6 C6B6 G1G2 E1D1 G9F9 I0H0 B8B9 H0I0 D7D8 E0E1 H4G4 I8J8 D3E3 E7F7 D2D1 E4E3 E3E4 D3D4 J4J5 E2D2 I5I6 A2B2 E7D7 B1C1 H4H3 G0G1 C5C6 J4I4 D1E1 F9F8 E0D0 B6C6 A3A4 F4G4 B4A4 D4D5 G2F2 F2F3 I1J1 H3I3 H0I0 B3B4 F8F9 B2B3 I7I8" />
    <trip id="36" depart="36.00" from="J4I4" to="B3B4" via="B5A5 G3G2 A3A4 D8D9 D1D0 C5C4 I1I0 H8G8 E7E8 I9I8 I8I9 A5A4 H9I9 H2I2 A9A8 H2H3 J4J5 H7H6 E3E2 F7E7 H1G1 B6A6 G9H9 F8F9 C7C6 E0D0 A1B1 I7I8 J9I9 B3B2 E5D5 D4E4 E1F1 D6D7 D6C6 A0A1 I8J8 H3H4 I3J3 I2I3 B0A0 C7C6 C2B2 J2J3 A0A1 I4H4 F3G3 H9G9 A1A0 A1B1 J2J1 C1C2 J8J9 H9H8 E0D0 B7B8 D8C8 C8C7 J1J0 H2H1 H3G3 I6I7 H4G4 F5F4" />
    <trip id="37" depart="37.00" from="B3B4" to="E2E1" via="E7E6 H8H7 G8F8 H2I2 I4J4 E2E1 C1D1 B3B2 A2A3 B5A5 C4C3 F4E4 E7D7 J2I2 E1E0 I6H6 C3C4 H8H7 J1J0 D2D1 J0J1 J4I4 B3B2 C1C2 I4I5 E6D6 A1A0 F1E1 J3J4 B9A9 G0G1 G6G5 D9C9 I7H7 H7H8 F0E0 G2H2 H6H7 F0E0 E7E8 H6H5 D2C2 C2C1 E9D9 A0A1 B0A0 B4B5 F6G6 C3C4 G4G5 G7G6 J5I5 J4I4 G4G5 B4A4 H3H4 F0E0 F9F8 C8B8 G0H0 E8D8 E5F5 A5B5 J9I9" />
    <trip id="38" depart="38.00" from="G6F6" to="E8E9" via="F8G8 I6J6 G4G3 B7C7 A9A8 B4C4 C5B5 A6B6 J6J5 C0B0 D1C1 E1E2 I5J5 F3F4 A0B0 I5J5 A7A8 G7F7 G8G9 J1J0 J7J8 H7H8 A2B2 I8J8 D4D5 F7E7 I0J0 C6C7 D1D0 B4B3 A1A2 B8C8 H7H8 F4F3 F4G4 E6F6 I7I8 C8B8 A3B3 B7A7 D5E5 A2B2 J2J3 E4E5 G8F8 B2B1 G6H6 G2H2 H9H8 J7J6 E1F1 J6I6 A6A5 D3C3 H1I1 D8D7 F5F6 E4F4 F8G8 J2J1 C9B9 C2B2 F7F8 G1F1" />
    <trip id="39" depart="39.00" from="B5A5" to="G8F8" via="H7H6 H2H3 D2D3 C1C2 B2B1 H7H8 I6I5 D9C9 D3D2 A3A2 F0E0 F5F4 F0G0 G3G2 A9A8 I2H2 A8A7 B9A9 I7J7 B0A0 E7D7 C8B8 G7G8 D4E4 C8B8 B2B1 A0A1 C2B2 E7E6 D6D5 A2B2 G2F2 A9A8 J7J8 F7G7 F4G4 J6J5 B6C6 E3E4 C4C5 B2B1 H0H1 A9A8 D3C3 I1I2 H5G5 F5F6 H9I9 G3G4 C0D0 I6I5 G4G5 H1H0 B8B9 I6I5 F4E4 G8G9 J0I0 A6A5 F8G8 A4A3 C4B4 D5E5 C1D1" />
    <trip id="40" depart="40.00" from="A7A8" to="H2H1" via="E4D4 D6D5 G0G1 B0C0 E9F9 E2E3 C4D4 D8C8 H2H1 D0D1 D2D1 I7J7 B8A8 D1E1 I4I5 A7B7 D6C6 A9A8 I5H5 F2F3 F3F2 F3E3 F4F3 I6I5 E5E6 B3B2 I2H2 E2D2 C9C8 D8E8 J5J4 F5G5 E4D4 G7G6 A5A6 E2E1 G3F3 D0E0 J6J5 I3I4 I3H3 F5G5 J1I1 F1E1 A2B2 H6H7 F0F1 G4G3 C4C3 J6I6 F0F1 J0I0 B1A1 F0F1 A1B1 D2E2 G6F6 F8G8 F7G7 B2A2 I3I4 I2I3 A0B0 F2E2" />
    <trip id="41" depart="41.00" from="D5D6" to="F2F1" via="I3I2 F2F3 I1I2 I0J0 E3D3 F6E6 B2A2 B7B8 C3D3 F3F4 A3A4 G9F9 G8F8 H5I5 D4D5 F7F8 B0B1 H1G1 G0H0 B9B8 C8B8 B3C3 B9B8 C4C5 H1I1 I0I1 H8H9 C8B8 E3D3 C9B9 H2G2 I2I1 F7E7 H6H7 C2C3 E7D7 B7A7 D3D4 H4H3 G3G4 B9C9 G1G2 F7F8 B7C7 E0D0 F9E9 C4D4 G7H7 F5F4 G0H0 G5F5 E8F8 J0I0 C3B3 A5A6 A3B3 D9D8 I8I9 H4H5 G0F0 F4E4 D8C8 D7D6 G8H8" />
    <trip id="42" depart="42.00" from="D3D2" to="B4C4" via="C8C9 D1C1 A1A2 E2D2 I4J4 F4E4 E5E4 F8G8 G0F0 A8B8 C0D0 G9G8 E4E3 H1H2 C4D4 E0F0 B7B8 G8F8 H1H2 J3J4 C0D0 B1A1 E0D0 C7D7 J3J2 E6E7 C8C9 B6A6 G6F6 I3H3 E5D5 D3C3 B8A8 B6B7 I3I4 I7I6 G0F0 A0A1 I1H1 B7C7 A5A4 G0F0 J5J6 B5C5 I5H5 F4G4 G1G0 G1G2 G6G5 A1A2 J8J7 J2J3 I8I9 B2B3 C0B0 I1J1 D4E4 A2B2 I0I1 F1F2 J6J7 E7F7 G2H2 J4J3" />
    <trip id="43" depart="43.00" from="I8I7" to="E4F4" via="F9F8 A4A3 C2C1 H6I6 J9I9 J6J7 C6C5 C5B5 G4G3 A5A4 B5C5 I6H6 E8E9 H0G0 G4G3 H7H6 I3I4 B1B2 I7H7 I5H5 G9H9 F8G8 B5C5 F9G9 B3A3 F3G3 H9G9 H6I6 C2C3 G8G7 B9A9 J3J4 H7H8 D5D6 C0C1 I1I0 H2G2 D1D0 H3I3 H2H3 C2C3 I3H3 B9C9 I5I4 I4I5 C2C1 F5E5 F9E9 G3G2 D3D4 G3G4 D5D6 D7D8 B3A3 J4J3 B4B3 D0D1 F9G9 G0H0 A7A8 I4I5 G5F5 F8E8 D8C8" />
    <trip id="44" depart="44.00" from="F5G5" to="F2E2" via="F9F8 C3C2 F3F2 G3F3 F4G4 H3G3 J4J3 F3E3 E4F4 H5I5 I1I0 I2H2 E0F0 E1F1 C3C2 I2J2 C6B6 D2D1 A4A3 A0A1 I5I4 E1E0 C9C8 H4H5 E5E6 G5G6 D1D2 E5F5 E9F9 B2C2 A3A2 H6I6 E5F5 B4A4 D0D1 F0G0 G0F0 G3H3 A6B6 H3G3 C0C1 F8G8 F2E2 E6D6 E3E2 C0C1 G8G9 H8I8 A3A2 F3F2 F4G4 J8J9 A1A0 F3F2 F8F7 F6F5 B7A7 E7F7 A6A7 H1I1 G1H1 D8D7 J6J7 C5B5" />
    <trip id="45" depart="45.00" from="C6D6" to="I5I4" via="F7E7 D6E6 I1H1 G2F2 E1F1 H7H8 D2C2 F7F6 D2D1 H8H9 J3J4 E6E5 I8I7 G7G8 D3E3 J4J3 H6H7 H3H4 D8C8 J8J9 G0G1 E1E0 A2B2 I0I1 D1D2 E5E6 D8C8 G1G2 G0H0 G8F8 J3J4 A0B0 J1J2 F6F5 G7F7 H5H6 D2D3 D8C8 C4C5 G3G4 H5G5 C1B1 I2I1 B8B9 I2I3 C4C3 E0D0 F8E8 A2B2 B2B3 I2H2 G1H1 B6C6 A8A7 F5F4 C6D6 G9F9 J5J6 I7J7 E8D8 H3H2 H6H5 A7B7 E4D4" />
    <trip id="46" depart="46.00" from="I6I7" to="C7C6" via="D7D8 H2G2 J3I3 A7A6 D8C8 J5J6 J3I3 G6G5 I1I2 B3B4 A4B4 E6D6 E3F3 D7C7 B0A0 F2E2 F8F7 H2H3 C7C6 E4F4 G8G7 B2B1 G2F2 I6J6 B6B7 A4A3 I3I2 A4A5 B9A9 E9F9 H8G8 F5E5 E2D2 I5H5 I6I5 I3H3 B9C9 D3D2 C0C1 B1A1 G3G2 J7J6 B0A0 E9D9 B7A7 H8G8 G5F5 D7E7 I2J2 E7F7 A4B4 C3B3 F4F5 A2A1 H5G5 D5D4 G3G4 I5H5 C6B6 E1D1 C5D5 B3B2 F6F7 I3I2" />
    <trip id="47" depart="47.00" from="I1H1" to="G2H2" via="F9F8 H9H8 J2I2 G5G4 B8A8 H1H2 H7I7 C7D7 E2E1 D8D9 G3H3 E7E6 F5E5 I9J9 F3G3 F6F5 F2G2 F3F4 D1D2 E3E4 H4H3 G3F3 C6C5 J6J7 J6J5 F1F2 F4G4 E9F9 A1A0 D2D3 D7C7 C9B9 J2I2 A1A2 H6H5 I5I4 D3E3 F5F4 B4A4 F0G0 D6D7 G8F8 C8C7 H7H8 G6G7 D2D3 G0G1 B6A6 J5J6 J7J8 F4F3 A5B5 E8F8 A6A5 F5E5 F3E3 F2G2 G4F4 E2F2 C3D3 I4I5 I9J9 A3B3 H2I2" />
    <trip id="48" depart="48.00" from="D9D8" to="C4D4" via="J6J7 H9I9 B5B6 I8J8 C8B8 J1I1 B6B5 D6D7 B1B2 E0E1 C4C5 F2E2 I7I8 D6E6 A0B0 F2E2 H3G3 E0D0 F4G4 I8H8 F2F3 G1F1 H7H8 B3C3 D7D8 B5B6 A5A6 B9A9 I6I5 D0E0 I6I5 H1H2 G0F0 E3D3 G3G4 F2F3 I7J7 D4D5 A1A2 B4A4 I4J4 G4H4 F2F1 H8H9 J5I5 C4D4 A8A7 F5G5 A6B6 B0B1 B5A5 D4E4 F1F2 A0A1 D5E5 C5C4 G7G6 H0I0 E7D7 C1D1 C1C0 F9E9 J5J4 D2D3" />
    <trip id="49" depart="49.00" from="E9E8" to="C1C0" via="E2E3 C4C3 G7G6 H7G7 C3B3 G7H7 J5I5 J9I9 A7A6 G2H2 D3D4 G2G1 E1D1 E9E8 D7E7 B9C9 B6A6 F4F5 I4I5 E4E3 J9I9 C8C9 F9F8 C5C4 A2B2 F8F9 E1E2 C8C9 H2H1 I7I6 G6G5 H7I7 H9G9 G7G8 F1G1 D2E2 G5F5 F7F6 D2E2 H5G5 B0A0 I4I5 I3H3 G4F4 G5F5 F2G2 I4J4 D9C9 G7F7 B2C2 C1B1 E1F1 G2G3 H8H9 G3G4 H3G3 C0D0 G1G2 E5F5 F2F3 D2D1 I5I6 J4J5 J2J3" />
    <trip id="50" depart="50.00" from="A6A7" to="E5F5" via="D3C3 C0B0 C2C1 D5D4 I8I9 E2D2 B7A7 I5H5 F2G2 I3H3 A1A2 E8E9 J8J7 E6E5 G4H4 H2G2 F5G5 F2F3 E3D3 A5A4 A6A7 J9J8 A3A2 D1C1 J0I0 F4E4 B0A0 G4H4 G7F7 C5C6 D7C7 D0D1 D4D3 A4B4 I3I2 D2D1 A2B2 E4F4 H2I2 C6C5 C8C9 C0B0 H0I0 C6C7 H1H0 G1H1 J4I4 B4B3 C4C3 E0D0 F1F2 H3H2 B6B7 I5J5 D9E9 D2E2 C1B1 G0F0 A5B5 A6A7 H5G5 J5I5 D0D1 B4B5" />
    <trip id="51" depart="51.00" from="J2J1" to="F2G2" via="I6J6 E6F6 F6F5 A6A7 B5C5 D6E6 I5I4 H2G2 H3I3 G2F2 I9J9 D5E5 H5H6 H4G4 B2A2 C1C0 D4E4 I3I2 I0I1 F2F1 J6J7 C9C8 B4B5 A3A2 F4F3 E9E8 E6F6 D7E7 J9J8 C5C4 H3I3 C2D2 I4I3 I9H9 G1H1 C1C2 B2C2 F8E8 I4J4 J9J8 F2G2 F4F5 J6I6 F3G3 F6F7 H3G3 G5G6 F6G6 C9C8 J3I3 G2G1 C1B1 H9I9 A2A1 G3H3 B1A1 F2F3 G3F3 F2E2 B7B8 I7I6 F1E1 D4E4 B2B1" />
    <trip id="52" depart="52.00" from="B4B5" to="A4A5" via="B2A2 I5I6 E4E5 B3B4 H6G6 I1I2 D3C3 B2B1 H5H6 F0G0 D2D1 A9B9 A9B9 A5A4 A5B5 G0G1 D5C5 F3G3 C7C6 I9H9 C0C1 D3D2 C5C6 A2A3 G6F6 F8G8 E4F4 H2I2 H6I6 J3J2 I2I1 J8J9 F2G2 F8E8 I0H0 A5A4 B0A0 G0H0 C2B2 B5B4 J1J0 E4E3 H8H9 D2D1 D3D2 A8A7 J7I7 I5H5 B2B3 G4H4 A1A0 D5E5 H4I4 G7G8 A1A2 G8G9 D8D7 I0I1 F2F3 H5H4 G9F9 I3H3 F1F2 A4A5" />
    <trip id="53" depart="53.00" from="A6B6" to="G4H4" via="D8D7 B8B7 J1I1 H1H2 F1F0 C3D3 E2F2 G0F0 F1F2 D9C9 C1C0 D8D7 A4A5 G2G3 J0I0 D9D8 F9G9 G3G2 D6E6 E8F8 J4I4 E2E1 B0B1 H3I3 D8C8 H0I0 H2H1 B8B7 B3B4 F0G0 G8G7 D0E0 F2G2 G6G5 B1A1 E2F2 F8E8 I1I0 I1H1 A6B6 A1A0 G3G2 I1J1 E3F3 I5I4 I0H0 A3B3 G7G6 G5H5 D2E2 A6A7 G4G5 B8A8 C1C0 D5D4 H6H5 C5D5 C1D1 H5H4 E5E4 H6I6 H4H5 H3H2 C6C5" />
    <trip id="54" depart="54.00" from="C6C5" to="H3H4" via="D4E4 B0B1 C7C6 E2D2 I0J0 J1I1 G1H1 C7D7 H8H7 I3I2 C4B4 I7J7 J3J4 B5B4 I3I4 E4D4 C0B0 C6D6 B6B5 C3C2 F8G8 C2C1 H0G0 D0D1 C6C5 E1D1 D7D8 D6E6 E7F7 C5C6 E3F3 H1H0 B6C6 C0D0 I2I1 D8C8 D6D5 I6H6 H0I0 J5I5 C9B9 D8C8 G0G1 E3E2 G4G5 B7A7 B4B3 G0G1 H7I7 G0G1 B8A8 C5C6 C3D3 B2B3 A9A8 H4H3 F9G9 B3B2 E4D4 D2C2 B2B1 H8I8 D7D6 J4J5" />
    <trip id="55" depart="55.00" from="G3G2" to="A4A5" via="D6D7 C2C3 H2I2 F6G6 H4H3 E9D9 I0J0 H7H8 E0F0 E3D3 I2H2 J6J5 C2D2 A0B0 C5B5 A5A4 G6G5 I2H2 G9H9 C5C4 F5E5 H0G0 C3D3 E0E1 D2C2 H8G8 F3G3 E4E3 D0C0 B2B1 F2E2 E2E1 C3B3 B0A0 I3J3 G9F9 C6B6 B8A8 F6F5 H2H3 F8F7 C3D3 A8A7 B3C3 A5A4 H5H4 J6J5 I4I5 J0I0 D9E9 A9B9 G1G0 A7A8 A1A2 A7A6 B6B5 H7G7 H9G9 F6E6 E1E2 B4C4 B6B5 F1E1 D3E3" />
    <trip id="56" depart="56.00" from="E6E7" to="F1F2" via="J1J0 D0E0 G9H9 E2F2 J6J7 E1E2 D2D3 H8G8 F2F1 D8D7 H1H0 A6A5 E4D4 B8A8 C9B9 A2A1 B2B1 F1F0 B3B2 F0E0 D6E6 E2E3 E8F8 E6E5 F6F5 E3E4 H3I3 G8G7 H5H4 B3B4 B9A9 I1I2 E5E6 E5E6 D4E4 J3J2 D7D8 J7I7 C3B3 G2F2 E7F7 A2A1 F3E3 A0B0 H6H7 G1H1 H6H5 E8E9 I8J8 D1E1 A4A5 H3I3 B3B2 J7J6 J8J7 A8B8 A9B9 B7A7 C3D3 B7C7 B0B1 B4B5 C0C1 D8D9" />
    <trip id="57" depart="57.00" from="H2G2" to="C4C5" via="G9F9 G3G2 D4C4 E1E2 F6F5 H5H6 A8B8 C2D2 A8A9 J7J6 E1D1 F8F9 H8H9 C3C2 B3C3 F9G9 I5I4 E0E1 F4F5 D9E9 C8D8 E7E6 H8H9 G8G7 E8F8 C0B0 C8D8 A0A1 D4D3 A7B7 J5J6 A3A2 C8D8 J8I8 D7E7 D4C4 F5E5 B3A3 F3G3 I1I2 J5J4 C6C7 J2J1 F2F3 B3B4 C9C8 I9J9 H8H9 F2F1 E2F2 B8A8 A5B5 G9G8 A4B4 C8C7 D8D9 F3G3 G6F6 G6G5 F9F8 C4D4 J5J4 I4I3 G5G6" />
    <trip id="58" depart="58.00" from="H7H8" to="B1B0" via="H2I2 B7B6 F1F2 E2E1 F1E1 H4I4 I3I4 F3G3 C1C2 J9J8 D4E4 F6F5 A1A0 E0D0 F8G8 B9C9 C6C7 A0A1 F6F5 B8B7 E7D7 C4C3 J7J6 B7A7 J0I0 D8D9 A1A0 E6E5 A3B3 D0E0 F3F2 B3C3 H2I2 I2I3 D7D8 G1G2 J6J7 D5C5 E2E1 B4C4 C9C8 C7B7 C3C2 J3I3 I4I5 B5B6 A7B7 D1C1 I0J0 G1H1 D4D5 F4E4 E5D5 C3B3 C4C5 E7E8 E3D3 B5A5 E0D0 G5H5 F3F4 J6I6 D9E9 I1I2" />
    <trip id="59" depart="59.00" from="B1C1" to="C0B0" via="B6C6 F0G0 D9C9 G9G8 C7C6 A1B1 F7G7 G1G0 F0G0 C4B4 H0G0 E5F5 F8F9 F8G8 B7C7 H0G0 H4I4 J1J2 D1D0 F1F0 B2A2 C5D5 F3F4 B1A1 J3J4 A5A4 B2A2 C4D4 I5J5 B3B2 B9A9 H7I7 I3H3 B0B1 F0F1 A8A9 D4C4 D3D2 F3G3 F2E2 C7C8 A4A5 G5H5 I4I3 H6I6 C8C9 B0C0 H4H5 F9G9 C4B4 H4H3 G3F3 D1D2 C8B8 B8B9 D1E1 H2I2 I7I8 G3G4 A9A8 B3B4 D0C0 A2B2 C9B9" />
</routes>
