<?xml version='1.0' encoding='us-ascii'?>
<additional xmlns:xsi="http://www.w3.org/2001/XMLSchema-instance" xsi:noNamespaceSchemaLocation="http://sumo.dlr.de/xsd/additional_file.xsd">
	<poly id="building-simple-66_66" type="building" fill="1" layer="-1.0" color="128,128,128" shape="10.0,10.0 122.5,10.0 122.5,122.5 10.0,122.5 10.0,10.0" height="10.447" />
	<poly id="building-simple-66_188" type="building" fill="1" layer="-1.0" color="128,128,128" shape="10.0,132.5 122.5,132.5 122.5,245.0 10.0,245.0 10.0,132.5" height="18.801" />
	<poly id="building-simple-66_311" type="building" fill="1" layer="-1.0" color="128,128,128" shape="10.0,255.0 122.5,255.0 122.5,367.5 10.0,367.5 10.0,255.0" height="10.696" />
	<poly id="building-simple-66_433" type="building" fill="1" layer="-1.0" color="128,128,128" shape="10.0,377.5 122.5,377.5 122.5,490.0 10.0,490.0 10.0,377.5" height="11.108" />
	<poly id="building-simple-188_66" type="building" fill="1" layer="-1.0" color="128,128,128" shape="132.5,10.0 245.0,10.0 245.0,122.5 132.5,122.5 132.5,10.0" height="19.044" />
	<poly id="building-simple-188_188" type="building" fill="1" layer="-1.0" color="128,128,128" shape="132.5,132.5 245.0,132.5 245.0,245.0 132.5,245.0 132.5,132.5" height="15.565" />
	<poly id="building-simple-188_311" type="building" fill="1" layer="-1.0" color="128,128,128" shape="132.5,255.0 245.0,255.0 245.0,367.5 132.5,367.5 132.5,255.0" height="19.915" />
	<poly id="building-simple-188_433" type="building" fill="1" layer="-1.0" color="128,128,128" shape="132.5,377.5 245.0,377.5 245.0,490.0 132.5,490.0 132.5,377.5" height="12.950" />
	<poly id="building-simple-311_66" type="building" fill="1" layer="-1.0" color="128,128,128" shape="255.0,10.0 367.5,10.0 367.5,122.5 255.0,122.5 255.0,10.0" height="15.501" />
	<poly id="building-simple-311_188" type="building" fill="1" layer="-1.0" color="128,128,128" shape="255.0,132.5 367.5,132.5 367.5,245.0 255.0,245.0 255.0,132.5" height="13.279" />
	<poly id="building-simple-311_311" type="building" fill="1" layer="-1.0" color="128,128,128" shape="255.0,255.0 367.5,255.0 367.5,367.5 255.0,367.5 255.0,255.0" height="11.549" />
	<poly id="building-simple-311_433" type="building" fill="1" layer="-1.0" color="128,128,128" shape="255.0,377.5 367.5,377.5 367.5,490.0 255.0,490.0 255.0,377.5" height="12.750" />
	<poly id="building-simple-433_66" type="building" fill="1" layer="-1.0" color="128,128,128" shape="377.5,10.0 490.0,10.0 490.0,122.5 377.5,122.5 377.5,10.0" height="12.700" />
	<poly id="building-simple-433_188" type="building" fill="1" layer="-1.0" color="128,128,128" shape="377.5,132.5 490.0,132.5 490.0,245.0 377.5,245.0 377.5,132.5" height="17.312" />
	<poly id="building-simple-433_311" type="building" fill="1" layer="-1.0" color="128,128,128" shape="377.5,255.0 490.0,255.0 490.0,367.5 377.5,367.5 377.5,255.0" height="15.548" />
	<poly id="building-simple-433_433" type="building" fill="1" layer="-1.0" color="128,128,128" shape="377.5,377.5 490.0,377.5 490.0,490.0 377.5,490.0 377.5,377.5" height="19.362" />
	<poly id="building-simple-66_566" type="building" fill="1" layer="-1.0" color="128,128,128" shape="10.0,510.0 122.5,510.0 122.5,622.5 10.0,622.5 10.0,510.0" height="17.130" />
	<poly id="building-simple-66_688" type="building" fill="1" layer="-1.0" color="128,128,128" shape="10.0,632.5 122.5,632.5 122.5,745.0 10.0,745.0 10.0,632.5" height="13.837" />
	<poly id="building-simple-66_811" type="building" fill="1" layer="-1.0" color="128,128,128" shape="10.0,755.0 122.5,755.0 122.5,867.5 10.0,867.5 10.0,755.0" height="17.069" />
	<poly id="building-simple-66_933" type="building" fill="1" layer="-1.0" color="128,128,128" shape="10.0,877.5 122.5,877.5 122.5,990.0 10.0,990.0 10.0,877.5" height="17.021" />
	<poly id="building-simple-188_566" type="building" fill="1" layer="-1.0" color="128,128,128" shape="132.5,510.0 245.0,510.0 245.0,622.5 132.5,622.5 132.5,510.0" height="13.066" />
	<poly id="building-simple-188_688" type="building" fill="1" layer="-1.0" color="128,128,128" shape="132.5,632.5 245.0,632.5 245.0,745.0 132.5,745.0 132.5,632.5" height="10.990" />
	<poly id="building-simple-188_811" type="building" fill="1" layer="-1.0" color="128,128,128" shape="132.5,755.0 245.0,755.0 245.0,867.5 132.5,867.5 132.5,755.0" height="11.594" />
	<poly id="building-simple-188_933" type="building" fill="1" layer="-1.0" color="128,128,128" shape="132.5,877.5 245.0,877.5 245.0,990.0 132.5,990.0 132.5,877.5" height="10.157" />
	<poly id="building-simple-311_566" type="building" fill="1" layer="-1.0" color="128,128,128" shape="255.0,510.0 367.5,510.0 367.5,622.5 255.0,622.5 255.0,510.0" height="16.549" />
	<poly id="building-simple-311_688" type="building" fill="1" layer="-1.0" color="128,128,128" shape="255.0,632.5 367.5,632.5 367.5,745.0 255.0,745.0 255.0,632.5" height="10.764" />
	<poly id="building-simple-311_811" type="building" fill="1" layer="-1.0" color="128,128,128" shape="255.0,755.0 367.5,755.0 367.5,867.5 255.0,867.5 255.0,755.0" height="19.069" />
	<poly id="building-simple-311_933" type="building" fill="1" layer="-1.0" color="128,128,128" shape="255.0,877.5 367.5,877.5 367.5,990.0 255.0,990.0 255.0,877.5" height="17.560" />
	<poly id="building-simple-433_566" type="building" fill="1" layer="-1.0" color="128,128,128" shape="377.5,510.0 490.0,510.0 490.0,622.5 377.5,622.5 377.5,510.0" height="17.988" />
	<poly id="building-simple-433_688" type="building" fill="1" layer="-1.0" color="128,128,128" shape="377.5,632.5 490.0,632.5 490.0,745.0 377.5,745.0 377.5,632.5" height="14.027" />
	<poly id="building-simple-433_811" type="building" fill="1" layer="-1.0" color="128,128,128" shape="377.5,755.0 490.0,755.0 490.0,867.5 377.5,867.5 377.5,755.0" height="17.719" />
	<poly id="building-simple-433_933" type="building" fill="1" layer="-1.0" color="128,128,128" shape="377.5,877.5 490.0,877.5 490.0,990.0 377.5,990.0 377.5,877.5" height="18.968" />
	<poly id="building-simple-566_66" type="building" fill="1" layer="-1.0" color="128,128,128" shape="510.0,10.0 622.5,10.0 622.5,122.5 510.0,122.5 510.0,10.0" height="15.257" />
	<poly id="building-simple-566_188" type="building" fill="1" layer="-1.0" color="128,128,128" shape="510.0,132.5 622.5,132.5 622.5,245.0 510.0,245.0 510.0,132.5" height="12.243" />
	<poly id="building-simple-566_311" type="building" fill="1" layer="-1.0" color="128,128,128" shape="510.0,255.0 622.5,255.0 622.5,367.5 510.0,367.5 510.0,255.0" height="11.223" />
	<poly id="building-simple-566_433" type="building" fill="1" layer="-1.0" color="128,128,128" shape="510.0,377.5 622.5,377.5 622.5,490.0 510.0,490.0 510.0,377.5" height="11.937" />
	<poly id="building-simple-688_66" type="building" fill="1" layer="-1.0" color="128,128,128" shape="632.5,10.0 745.0,10.0 745.0,122.5 632.5,122.5 632.5,10.0" height="19.813" />
	<poly id="building-simple-688_188" type="building" fill="1" layer="-1.0" color="128,128,128" shape="632.5,132.5 745.0,132.5 745.0,245.0 632.5,245.0 632.5,132.5" height="13.867" />
	<poly id="building-simple-688_311" type="building" fill="1" layer="-1.0" color="128,128,128" shape="632.5,255.0 745.0,255.0 745.0,367.5 632.5,367.5 632.5,255.0" height="17.261" />
	<poly id="building-simple-688_433" type="building" fill="1" layer="-1.0" color="128,128,128" shape="632.5,377.5 745.0,377.5 745.0,490.0 632.5,490.0 632.5,377.5" height="13.696" />
	<poly id="building-simple-811_66" type="building" fill="1" layer="-1.0" color="128,128,128" shape="755.0,10.0 867.5,10.0 867.5,122.5 755.0,122.5 755.0,10.0" height="11.125" />
	<poly id="building-simple-811_188" type="building" fill="1" layer="-1.0" color="128,128,128" shape="755.0,132.5 867.5,132.5 867.5,245.0 755.0,245.0 755.0,132.5" height="10.086" />
	<poly id="building-simple-811_311" type="building" fill="1" layer="-1.0" color="128,128,128" shape="755.0,255.0 867.5,255.0 867.5,367.5 755.0,367.5 755.0,255.0" height="11.907" />
	<poly id="building-simple-811_433" type="building" fill="1" layer="-1.0" color="128,128,128" shape="755.0,377.5 867.5,377.5 867.5,490.0 755.0,490.0 755.0,377.5" height="16.223" />
	<poly id="building-simple-933_66" type="building" fill="1" layer="-1.0" color="128,128,128" shape="877.5,10.0 990.0,10.0 990.0,122.5 877.5,122.5 877.5,10.0" height="15.829" />
	<poly id="building-simple-933_188" type="building" fill="1" layer="-1.0" color="128,128,128" shape="877.5,132.5 990.0,132.5 990.0,245.0 877.5,245.0 877.5,132.5" height="19.711" />
	<poly id="building-simple-933_311" type="building" fill="1" layer="-1.0" color="128,128,128" shape="877.5,255.0 990.0,255.0 990.0,367.5 877.5,367.5 877.5,255.0" height="15.536" />
	<poly id="building-simple-933_433" type="building" fill="1" layer="-1.0" color="128,128,128" shape="877.5,377.5 990.0,377.5 990.0,490.0 877.5,490.0 877.5,377.5" height="12.612" />
	<poly id="building-simple-566_566" type="building" fill="1" layer="-1.0" color="128,128,128" shape="510.0,510.0 622.5,510.0 622.5,622.5 510.0,622.5 510.0,510.0" height="13.912" />
	<poly id="building-simple-566_688" type="building" fill="1" layer="-1.0" color="128,128,128" shape="510.0,632.5 622.5,632.5 622.5,745.0 510.0,745.0 510.0,632.5" height="10.471" />
	<poly id="building-simple-566_811" type="building" fill="1" layer="-1.0" color="128,128,128" shape="510.0,755.0 622.5,755.0 622.5,867.5 510.0,867.5 510.0,755.0" height="18.547" />
	<poly id="building-simple-566_933" type="building" fill="1" layer="-1.0" color="128,128,128" shape="510.0,877.5 622.5,877.5 622.5,990.0 510.0,990.0 510.0,877.5" height="16.985" />
	<poly id="building-simple-688_566" type="building" fill="1" layer="-1.0" color="128,128,128" shape="632.5,510.0 745.0,510.0 745.0,622.5 632.5,622.5 632.5,510.0" height="11.094" />
	<poly id="building-simple-688_688" type="building" fill="1" layer="-1.0" color="128,128,128" shape="632.5,632.5 745.0,632.5 745.0,745.0 632.5,745.0 632.5,632.5" height="10.993" />
	<poly id="building-simple-688_811" type="building" fill="1" layer="-1.0" color="128,128,128" shape="632.5,755.0 745.0,755.0 745.0,867.5 632.5,867.5 632.5,755.0" height="10.460" />
	<poly id="building-simple-688_933" type="building" fill="1" layer="-1.0" color="128,128,128" shape="632.5,877.5 745.0,877.5 745.0,990.0 632.5,990.0 632.5,877.5" height="15.829" />
	<poly id="building-simple-811_566" type="building" fill="1" layer="-1.0" color="128,128,128" shape="755.0,510.0 867.5,510.0 867.5,622.5 755.0,622.5 755.0,510.0" height="12.412" />
	<poly id="building-simple-811_688" type="building" fill="1" layer="-1.0" color="128,128,128" shape="755.0,632.5 867.5,632.5 867.5,745.0 755.0,745.0 755.0,632.5" height="11.692" />
	<poly id="building-simple-811_811" type="building" fill="1" layer="-1.0" color="128,128,128" shape="755.0,755.0 867.5,755.0 867.5,867.5 755.0,867.5 755.0,755.0" height="10.678" />
	<poly id="building-simple-811_933" type="building" fill="1" layer="-1.0" color="128,128,128" shape="755.0,877.5 867.5,877.5 867.5,990.0 755.0,990.0 755.0,877.5" height="14.105" />
	<poly id="building-simple-933_566" type="building" fill="1" layer="-1.0" color="128,128,128" shape="877.5,510.0 990.0,510.0 990.0,622.5 877.5,622.5 877.5,510.0" height="10.764" />
	<poly id="building-simple-933_688" type="building" fill="1" layer="-1.0" color="128,128,128" shape="877.5,632.5 990.0,632.5 990.0,745.0 877.5,745.0 877.5,632.5" height="12.971" />
	<poly id="building-simple-933_811" type="building" fill="1" layer="-1.0" color="128,128,128" shape="877.5,755.0 990.0,755.0 990.0,867.5 877.5,867.5 877.5,755.0" height="18.960" />
	<poly id="building-simple-933_933" type="building" fill="1" layer="-1.0" color="128,128,128" shape="877.5,877.5 990.0,877.5 990.0,990.0 877.5,990.0 877.5,877.5" height="12.782" />
</additional>