<routes xmlns:xsi="http://www.w3.org/2001/XMLSchema-instance" xsi:noNamespaceSchemaLocation="http://sumo.dlr.de/xsd/routes_file.xsd">
    <route edges="D0C0 C0B0 B0C0 C0B0 B0B1 B1B0 B0A0 A0A1 A1A2 A2A3 A3B3 B3C3 C3C4 C4D4 D4D3 D3D2 D2C2 C2B2 B2B1 B1C1 C1B1 B1B2 B2C2 C2D2 D2C2 C2D2 D2E2 E2E3 E3E4 E4D4 D4C4 C4C3 C3C2 C2C1 C1C0 C0B0 B0C0 C0D0 D0E0 E0E1 E1E2 E2E3 E3E4 E4D4 D4D3 D3D2 D2D1 D1D2 D2D3 D3E3 E3E4 E4D4 D4C4 C4C3 C3C2 C2C1 C1C0 C0C1 C1C2 C2C3 C3C4 C4D4 D4E4 E4E3 E3D3 D3C3 C3C2 C2C1 C1B1 B1C1 C1B1 B1B2 B2B3 B3C3 C3C4 C4D4 D4D3 D3D2 D2D1 D1E1 E1D1 D1D2 D2D3 D3D2 D2C2 C2D2 D2E2 E2E1 E1D1 D1C1 C1B1 B1A1 A1A2 A2A3 A3B3 B3B4 B4C4 C4D4 D4D3 D3D2 D2D1 D1D0 D0C0 C0B0 B0A0 A0A1 A1B1 B1B0 B0B1 B1C1 C1C0 C0C1 C1C2 C2C3 C3D3 D3D4 D4C4 C4B4 B4A4 A4A3 A3A2 A2A1 A1A2 A2B2 B2C2" id="route-ext-0" />
    <route edges="E1D1 D1D2 D2D3 D3D4 D4E4 E4E3 E3E2 E2E1 E1D1 D1C1 C1B1 B1B0 B0C0 C0D0 D0E0 E0E1 E1E2 E2E1 E1E0 E0D0 D0D1 D1D2 D2D3 D3C3 C3D3 D3C3 C3B3 B3B4 B4B3 B3B2 B2B1 B1B2 B2C2 C2D2 D2D1 D1D2 D2E2 E2D2 D2C2 C2B2 B2A2 A2A3 A3A4 A4B4 B4C4 C4D4 D4E4 E4E3 E3E2 E2D2 D2C2 C2B2 B2B1 B1B2 B2B3 B3C3 C3D3 D3E3 E3E2 E2E1 E1E0 E0D0 D0C0 C0D0 D0C0 C0B0 B0A0 A0A1 A1A0 A0B0 B0A0 A0A1 A1B1 B1B0 B0A0 A0A1 A1A2 A2B2 B2C2 C2D2 D2E2 E2D2 D2C2 C2B2 B2B1 B1C1 C1D1 D1E1 E1D1 D1C1 C1B1 B1B2 B2B1 B1B2 B2C2 C2B2 B2B3 B3B4 B4C4 C4D4 D4E4 E4E3 E3E2 E2D2 D2C2 C2B2 B2A2 A2A1 A1A2 A2B2 B2C2 C2D2 D2D1 D1D0 D0C0 C0B0 B0B1 B1B2 B2B3 B3B2 B2B1 B1C1 C1D1 D1C1 C1C0 C0D0 D0E0 E0E1 E1E2 E2D2 D2C2 C2D2 D2D1 D1C1 C1B1 B1A1" id="route-ext-1" />
    <route edges="C0B0 B0B1 B1C1 C1C2 C2C3 C3C4 C4B4 B4C4 C4D4 D4D3 D3D2 D2D1 D1D0 D0D1 D1D2 D2D3 D3D4 D4C4 C4B4 B4C4 C4D4 D4E4 E4E3 E3E2 E2D2 D2D1 D1D2 D2D3 D3D4 D4C4 C4B4 B4A4 A4A3 A3A2 A2A1 A1B1 B1C1 C1D1 D1D2 D2C2 C2D2 D2D1 D1D2 D2D1 D1D0 D0E0 E0E1 E1E2 E2D2 D2C2 C2B2 B2B3 B3B4 B4C4 C4C3 C3C2 C2C3 C3C4 C4B4 B4A4 A4A3 A3A2 A2A1 A1A0 A0B0 B0C0 C0B0 B0A0 A0A1 A1A2 A2A3 A3A2 A2A3 A3B3 B3C3 C3D3 D3E3 E3E4 E4D4 D4C4 C4B4 B4A4 A4A3 A3A2 A2A1 A1B1 B1B0 B0C0 C0B0 B0A0 A0A1 A1A2 A2A3 A3A4 A4B4 B4C4 C4D4 D4D3 D3D4 D4D3 D3D2 D2C2 C2D2 D2C2 C2B2 B2A2 A2A1 A1A0 A0B0 B0B1 B1B0 B0B1 B1B2 B2B3 B3B4 B4C4 C4C3 C3D3 D3E3 E3E2 E2E1 E1D1 D1C1 C1C2 C2C3 C3C4 C4B4" id="route-ext-2" />
    <route edges="E2D2 D2D3 D3D4 D4E4 E4E3 E3E2 E2E1 E1E0 E0D0 D0E0 E0E1 E1E2 E2E3 E3E4 E4D4 D4C4 C4D4 D4D3 D3D2 D2D1 D1E1 E1E0 E0D0 D0D1 D1E1 E1E2 E2D2 D2C2 C2B2 B2A2 A2A3 A3A4 A4B4 B4B3 B3B2 B2B1 B1C1 C1B1 B1B2 B2C2 C2D2 D2E2 E2E3 E3E2 E2D2 D2D1 D1C1 C1B1 B1C1 C1C2 C2C3 C3C4 C4B4 B4A4 A4A3 A3A2 A2A1 A1B1 B1B2 B2B3 B3B4 B4C4 C4D4 D4E4 E4E3 E3D3 D3C3 C3B3 B3B4 B4C4 C4C3 C3C2 C2C1 C1C0 C0B0 B0A0 A0A1 A1B1 B1C1 C1D1 D1D2 D2C2 C2C1 C1C0 C0C1 C1C2 C2C3 C3D3 D3D4 D4E4 E4E3 E3E4 E4D4 D4C4 C4C3 C3C2 C2C1 C1C0 C0C1 C1C2 C2B2 B2B3 B3C3 C3D3 D3C3 C3B3 B3B4 B4C4 C4D4 D4E4 E4E3 E3D3 D3D2 D2D1 D1D0 D0C0 C0B0 B0B1 B1C1 C1D1 D1D0 D0D1 D1C1 C1C0 C0D0 D0C0 C0B0 B0A0 A0A1 A1A0 A0B0 B0C0 C0D0 D0D1 D1D2 D2D3 D3D4 D4E4 E4E3" id="route-ext-3" />
    <route edges="C3D3 D3D4 D4E4 E4E3 E3D3 D3C3 C3B3 B3A3 A3A2 A2A1 A1A0 A0B0 B0C0 C0D0 D0E0 E0E1 E1E2 E2E3 E3E2 E2E3 E3E2 E2E1 E1D1 D1C1 C1C2 C2D2 D2D1 D1D0 D0E0 E0E1 E1E2 E2E3 E3E4 E4D4 D4C4 C4B4 B4C4 C4C3 C3B3 B3B4 B4C4 C4D4 D4E4 E4E3 E3E2 E2E1 E1E2 E2E3 E3E2 E2E1 E1D1 D1C1 C1B1 B1A1 A1A2 A2A3 A3A4 A4B4 B4C4 C4B4 B4A4 A4A3 A3A2 A2A1 A1A0 A0B0 B0C0 C0C1 C1C2 C2C3 C3C4 C4D4 D4D3 D3D4 D4E4 E4E3 E3E2 E2E1 E1D1 D1C1 C1B1 B1C1 C1C0 C0C1 C1C2 C2D2 D2C2 C2C3 C3C4 C4D4 D4E4 E4E3 E3E2 E2E1 E1E2 E2E3 E3E4 E4D4 D4E4 E4E3 E3D3 D3E3 E3E4 E4D4 D4C4 C4B4 B4C4 C4D4 D4E4 E4E3 E3E2 E2E1 E1E0 E0D0 D0D1 D1D2 D2D3 D3D4 D4E4 E4E3 E3D3 D3C3 C3B3 B3A3 A3A2 A2A3 A3A4 A4B4 B4C4 C4B4 B4C4 C4D4 D4E4 E4E3 E3E2 E2E1 E1E2 E2E3 E3E4 E4D4 D4C4 C4C3 C3C2 C2B2 B2C2 C2C3 C3C4 C4B4" id="route-ext-4" />
    <route edges="D3C3 C3D3 D3E3 E3D3 D3D2 D2C2 C2C3 C3C2 C2B2 B2B3 B3C3 C3D3 D3E3 E3E2 E2E1 E1E0 E0D0 D0C0 C0B0 B0B1 B1B2 B2C2 C2B2 B2A2 A2A3 A3B3 B3C3 C3C4 C4B4 B4C4 C4D4 D4D3 D3E3 E3D3 D3D4 D4E4 E4E3 E3D3 D3C3 C3C4 C4C3 C3C2 C2C1 C1C0 C0B0 B0A0 A0A1 A1A2 A2A3 A3B3 B3C3 C3D3 D3E3 E3E2 E2E3 E3E4 E4D4 D4C4 C4C3 C3C2 C2C1 C1D1 D1E1 E1D1 D1C1 C1C2 C2C3 C3B3 B3C3 C3C2 C2C1 C1C0 C0C1 C1C2 C2C3 C3B3 B3B2 B2C2 C2C3 C3D3 D3E3 E3E2 E2E1 E1E0 E0D0 D0C0 C0B0 B0B1 B1B2 B2C2 C2C3 C3C4 C4B4 B4A4 A4A3 A3A4 A4B4 B4B3 B3C3 C3D3 D3E3 E3E2 E2D2 D2D3 D3D4 D4C4 C4C3 C3B3 B3B2 B2B3 B3C3 C3D3 D3C3 C3B3 B3C3 C3D3 D3E3 E3D3 D3E3 E3E2 E2E1 E1E0 E0D0 D0D1 D1D2 D2D3 D3D4 D4C4 C4B4 B4B3 B3B2 B2B1" id="route-ext-5" />
    <route edges="A0B0 B0B1 B1C1 C1B1 B1C1 C1D1 D1D2 D2C2 C2B2 B2A2 A2B2 B2B1 B1B0 B0C0 C0B0 B0B1 B1B2 B2B3 B3C3 C3D3 D3E3 E3E2 E2D2 D2C2 C2B2 B2C2 C2D2 D2D1 D1C1 C1D1 D1E1 E1E0 E0D0 D0C0 C0C1 C1C2 C2C3 C3C4 C4B4 B4B3 B3B2 B2B1 B1B0 B0C0 C0C1 C1B1 B1A1 A1A2 A2A3 A3A4 A4B4 B4A4 A4A3 A3B3 B3B2 B2B3 B3C3 C3D3 D3D4 D4C4 C4B4 B4A4 A4A3 A3A2 A2B2 B2B3 B3C3 C3D3 D3E3 E3D3 D3E3 E3E2 E2E3 E3E2 E2D2 D2D1 D1D0 D0C0 C0C1 C1C2 C2D2 D2C2 C2B2 B2A2 A2A3 A3B3 B3B2 B2A2 A2B2 B2B3 B3C3 C3D3 D3D2 D2C2 C2C3 C3C4 C4C3 C3B3 B3A3 A3A4 A4B4 B4C4 C4D4 D4D3 D3E3 E3E2 E2E1 E1E0 E0D0 D0C0 C0B0 B0A0 A0A1 A1A0 A0B0 B0C0 C0B0 B0A0 A0A1 A1A2 A2A1 A1A2 A2B2 B2C2" id="route-ext-6" />
    <route edges="C3C4 C4B4 B4C4 C4D4 D4C4 C4C3 C3C2 C2C1 C1B1 B1B0 B0B1 B1B2 B2C2 C2D2 D2E2 E2D2 D2C2 C2C1 C1C0 C0C1 C1C2 C2D2 D2C2 C2B2 B2B1 B1C1 C1C0 C0C1 C1C2 C2C3 C3D3 D3D4 D4C4 C4C3 C3C2 C2C1 C1C0 C0D0 D0C0 C0B0 B0B1 B1B2 B2B3 B3C3 C3D3 D3E3 E3E4 E4D4 D4E4 E4E3 E3D3 D3C3 C3B3 B3B4 B4B3 B3C3 C3C4 C4D4 D4E4 E4E3 E3E2 E2E1 E1E0 E0D0 D0D1 D1D2 D2C2 C2B2 B2A2 A2A1 A1A0 A0B0 B0C0 C0D0 D0D1 D1D2 D2D3 D3D4 D4C4 C4B4 B4C4 C4D4 D4D3 D3D2 D2D1 D1D0 D0E0 E0E1 E1E2 E2E3 E3D3 D3C3 C3C2 C2C1 C1C0 C0D0 D0E0 E0E1 E1E2 E2D2 D2C2 C2C1 C1C0 C0D0 D0D1 D1D2 D2D3 D3D4 D4D3 D3D2 D2D1 D1E1 E1E0 E0D0 D0E0 E0E1 E1E2 E2D2 D2D3 D3D4 D4D3 D3D2 D2D1 D1D0 D0C0 C0B0 B0A0 A0A1" id="route-ext-7" />
    <route edges="A1B1 B1B2 B2C2 C2D2 D2C2 C2D2 D2D1 D1C1 C1C2 C2C3 C3C2 C2C1 C1D1 D1E1 E1D1 D1C1 C1C2 C2D2 D2D1 D1C1 C1B1 B1B2 B2B1 B1B2 B2B3 B3C3 C3D3 D3E3 E3D3 D3C3 C3B3 B3A3 A3A2 A2A1 A1A0 A0B0 B0B1 B1B2 B2B3 B3A3 A3B3 B3C3 C3D3 D3E3 E3D3 D3D2 D2D1 D1D0 D0C0 C0B0 B0C0 C0D0 D0D1 D1D2 D2D3 D3D4 D4C4 C4C3 C3B3 B3A3 A3A4 A4B4 B4B3 B3B4 B4C4 C4D4 D4C4 C4C3 C3C2 C2B2 B2C2 C2C1 C1C0 C0B0 B0A0 A0A1 A1A2 A2A3 A3B3 B3C3 C3C2 C2C3 C3D3 D3D2 D2D1 D1D0 D0E0 E0E1 E1E2 E2D2 D2C2 C2C3 C3C4 C4C3 C3C2 C2C1 C1B1 B1B0 B0C0 C0D0 D0E0 E0E1 E1E2 E2D2 D2C2 C2B2 B2B3 B3B4 B4C4 C4D4 D4E4 E4E3 E3E4 E4D4 D4C4 C4B4 B4A4 A4A3 A3A2 A2B2 B2C2 C2D2 D2D3 D3E3 E3E2 E2E1 E1E0 E0D0 D0C0" id="route-ext-8" />
    <route edges="B0B1 B1C1 C1C0 C0C1 C1D1 D1D0 D0D1 D1E1 E1D1 D1D2 D2D3 D3D2 D2D1 D1C1 C1C0 C0D0 D0C0 C0C1 C1C2 C2C3 C3C4 C4C3 C3B3 B3B2 B2B1 B1B0 B0C0 C0D0 D0C0 C0B0 B0B1 B1B2 B2B3 B3B2 B2C2 C2D2 D2D1 D1C1 C1B1 B1A1 A1A2 A2B2 B2C2 C2C1 C1C2 C2C1 C1B1 B1C1 C1B1 B1A1 A1A0 A0B0 B0C0 C0D0 D0E0 E0E1 E1E2 E2E3 E3E2 E2E1 E1E0 E0D0 D0C0 C0C1 C1C2 C2D2 D2D1 D1C1 C1B1 B1A1 A1A0 A0B0 B0B1 B1C1 C1B1 B1C1 C1C0 C0B0 B0B1 B1B2 B2C2 C2D2 D2C2 C2C1 C1B1 B1C1 C1C2 C2B2 B2B1 B1B2 B2B1 B1A1 A1A2 A2A3 A3B3 B3C3 C3D3 D3E3 E3E2 E2D2 D2C2 C2D2 D2D1 D1C1 C1B1 B1B2 B2B3 B3B4 B4C4 C4D4 D4E4 E4E3 E3E2 E2E1 E1D1 D1C1 C1B1 B1C1 C1D1 D1E1 E1E2 E2E3" id="route-ext-9" />
    <route edges="B1B2 B2B3 B3C3 C3C4 C4B4 B4C4 C4D4 D4D3 D3D2 D2D1 D1D0 D0E0 E0E1 E1E2 E2D2 D2C2 C2B2 B2A2 A2A3 A3B3 B3C3 C3D3 D3E3 E3E2 E2E1 E1E2 E2E1 E1E0 E0D0 D0C0 C0B0 B0A0 A0A1 A1B1 B1C1 C1D1 D1E1 E1E0 E0D0 D0D1 D1E1 E1D1 D1D0 D0D1 D1D2 D2D3 D3C3 C3B3 B3B4 B4A4 A4A3 A3A2 A2A1 A1A2 A2A3 A3A4 A4B4 B4C4 C4D4 D4D3 D3C3 C3B3 B3B4 B4C4 C4D4 D4E4 E4E3 E3E2 E2E1 E1D1 D1C1 C1C2 C2B2 B2C2 C2D2 D2D1 D1C1 C1B1 B1B2 B2B3 B3C3 C3C2 C2C1 C1C2 C2C3 C3B3 B3A3 A3B3 B3B2 B2B1 B1C1 C1B1 B1B2 B2B3 B3B4 B4B3 B3B2 B2B1 B1A1 A1A2 A2A3 A3B3 B3C3 C3D3 D3E3 E3E2 E2D2 D2E2 E2D2 D2C2 C2B2 B2B3 B3B4 B4C4 C4B4 B4C4 C4D4 D4D3 D3D2 D2D1 D1D2 D2D3 D3D4 D4E4 E4E3 E3D3 D3C3 C3B3 B3B2 B2B1 B1B0 B0A0 A0A1" id="route-ext-10" />
    <route edges="C1D1 D1C1 C1C2 C2C3 C3D3 D3E3 E3D3 D3D2 D2D1 D1D0 D0C0 C0C1 C1C2 C2C3 C3D3 D3C3 C3B3 B3A3 A3B3 B3C3 C3D3 D3D2 D2C2 C2C3 C3C4 C4B4 B4B3 B3B2 B2B1 B1B0 B0B1 B1A1 A1A2 A2A3 A3A4 A4B4 B4A4 A4A3 A3A4 A4B4 B4C4 C4D4 D4D3 D3C3 C3B3 B3C3 C3C2 C2C1 C1C0 C0D0 D0E0 E0E1 E1E2 E2E3 E3D3 D3C3 C3C4 C4C3 C3C2 C2B2 B2B3 B3B4 B4C4 C4D4 D4C4 C4C3 C3C2 C2C1 C1C0 C0D0 D0D1 D1D2 D2D3 D3E3 E3E2 E2E1 E1E0 E0D0 D0C0 C0B0 B0B1 B1C1 C1D1 D1D0 D0C0 C0C1 C1C0 C0D0 D0E0 E0E1 E1E2 E2E3 E3E4 E4D4 D4C4 C4B4 B4B3 B3B2 B2B1 B1B0 B0C0 C0D0 D0E0 E0E1 E1E2 E2E3 E3D3 D3C3 C3C2 C2C1 C1B1 B1A1 A1A2 A2A1 A1B1 B1C1 C1D1 D1E1 E1D1 D1D2 D2D1 D1C1 C1C2 C2C3 C3C4 C4C3 C3D3 D3D4 D4C4 C4B4 B4A4 A4A3 A3A4 A4B4 B4B3 B3B2 B2B1 B1B0 B0C0" id="route-ext-11" />
    <route edges="E4D4 D4C4 C4B4 B4B3 B3B2 B2B1 B1C1 C1D1 D1E1 E1E2 E2E3 E3E4 E4D4 D4E4 E4E3 E3E2 E2E1 E1E0 E0D0 D0C0 C0B0 B0A0 A0A1 A1B1 B1C1 C1C0 C0B0 B0B1 B1C1 C1D1 D1C1 C1C2 C2C3 C3D3 D3E3 E3D3 D3D2 D2E2 E2D2 D2D3 D3D4 D4E4 E4E3 E3E4 E4D4 D4C4 C4B4 B4A4 A4A3 A3A2 A2B2 B2C2 C2D2 D2D3 D3D2 D2D1 D1C1 C1B1 B1C1 C1C2 C2C3 C3C4 C4D4 D4D3 D3D2 D2D1 D1D0 D0D1 D1E1 E1E0 E0D0 D0C0 C0B0 B0B1 B1B2 B2B3 B3B4 B4A4 A4A3 A3A2 A2A1 A1A0 A0B0 B0B1 B1B2 B2B3 B3B2 B2B3 B3C3 C3D3 D3D2 D2D1 D1D0 D0D1 D1D2 D2C2 C2C3 C3D3 D3E3 E3E2 E2E1 E1E0 E0D0 D0C0 C0B0 B0B1 B1B2 B2C2 C2D2 D2C2 C2B2 B2A2 A2A3 A3A4 A4B4 B4C4 C4D4 D4E4 E4E3 E3E4 E4D4 D4E4 E4E3 E3E2 E2E3 E3E4 E4D4 D4C4 C4B4 B4C4 C4C3 C3C2 C2C1 C1B1 B1B2 B2B3 B3C3" id="route-ext-12" />
    <route edges="C0B0 B0C0 C0D0 D0E0 E0E1 E1E2 E2E3 E3D3 D3C3 C3C2 C2C1 C1B1 B1C1 C1C2 C2D2 D2E2 E2D2 D2C2 C2B2 B2B3 B3A3 A3B3 B3B2 B2B1 B1B2 B2B3 B3C3 C3D3 D3D2 D2E2 E2E1 E1D1 D1C1 C1C2 C2C3 C3C2 C2B2 B2A2 A2A3 A3B3 B3C3 C3D3 D3E3 E3E2 E2E1 E1E0 E0D0 D0D1 D1D2 D2C2 C2D2 D2D3 D3C3 C3B3 B3C3 C3B3 B3A3 A3A2 A2A1 A1A0 A0B0 B0C0 C0D0 D0D1 D1D2 D2D3 D3E3 E3E2 E2E1 E1D1 D1C1 C1C2 C2D2 D2E2 E2E1 E1D1 D1C1 C1C2 C2C3 C3C4 C4C3 C3C2 C2B2 B2A2 A2B2 B2C2 C2D2 D2D1 D1D0 D0D1 D1D2 D2D3 D3E3 E3E2 E2D2 D2C2 C2B2 B2B3 B3B2 B2A2 A2B2 B2C2 C2D2 D2D1 D1D0 D0D1 D1C1 C1B1 B1B0 B0B1 B1B2 B2B3 B3B4 B4C4 C4D4 D4E4 E4E3 E3E2 E2E1 E1D1 D1C1 C1B1 B1C1 C1B1 B1B2 B2B3 B3B4 B4C4" id="route-ext-13" />
    <route edges="D3C3 C3C2 C2C1 C1D1 D1C1 C1B1 B1A1 A1A2 A2A3 A3B3 B3B2 B2B1 B1A1 A1A2 A2B2 B2C2 C2C1 C1C0 C0C1 C1C2 C2C3 C3B3 B3B4 B4C4 C4D4 D4C4 C4D4 D4E4 E4E3 E3E4 E4D4 D4C4 C4C3 C3C2 C2C1 C1B1 B1B2 B2B3 B3B4 B4C4 C4B4 B4B3 B3C3 C3D3 D3D4 D4C4 C4D4 D4D3 D3C3 C3B3 B3A3 A3A2 A2A1 A1A0 A0B0 B0C0 C0B0 B0B1 B1B2 B2C2 C2D2 D2C2 C2C3 C3D3 D3E3 E3E4 E4D4 D4C4 C4B4 B4C4 C4C3 C3C2 C2C1 C1C0 C0B0 B0B1 B1B2 B2B1 B1C1 C1D1 D1D0 D0D1 D1D2 D2D3 D3D4 D4C4 C4B4 B4A4 A4A3 A3A2 A2A1 A1B1 B1C1 C1D1 D1E1 E1E0 E0D0 D0D1 D1D2 D2D3 D3C3 C3B3 B3C3 C3C2 C2C1 C1D1 D1E1 E1E2 E2E3 E3E2 E2E1 E1E0 E0D0 D0C0 C0C1 C1C2 C2C3 C3C4 C4C3 C3B3 B3A3 A3A4 A4B4 B4C4 C4D4 D4D3 D3D2 D2D1 D1D0 D0C0 C0B0 B0A0 A0A1 A1A2" id="route-ext-14" />
    <route edges="C1B1 B1B0 B0A0 A0A1 A1B1 B1C1 C1B1 B1B2 B2B3 B3B4 B4C4 C4D4 D4E4 E4E3 E3E2 E2D2 D2C2 C2B2 B2A2 A2B2 B2C2 C2C1 C1C0 C0C1 C1C2 C2C3 C3D3 D3E3 E3D3 D3D2 D2D1 D1D0 D0C0 C0B0 B0C0 C0D0 D0D1 D1D2 D2D3 D3E3 E3E2 E2E1 E1D1 D1C1 C1B1 B1A1 A1B1 B1B2 B2C2 C2B2 B2C2 C2C3 C3C4 C4B4 B4C4 C4D4 D4E4 E4E3 E3E2 E2D2 D2D1 D1C1 C1B1 B1C1 C1C0 C0B0 B0A0 A0A1 A1A2 A2A3 A3A4 A4B4 B4A4 A4A3 A3A2 A2A1 A1A0 A0B0 B0C0 C0C1 C1C2 C2C3 C3C4 C4D4 D4E4 E4E3 E3E2 E2D2 D2C2 C2C3 C3B3 B3B2 B2B1 B1B0 B0C0 C0D0 D0E0 E0E1 E1E2 E2E3 E3D3 D3C3 C3B3 B3B4 B4B3 B3A3 A3A4 A4B4 B4B3 B3B2 B2B1 B1A1 A1B1 B1B2 B2C2 C2D2 D2E2 E2D2 D2C2 C2B2 B2A2 A2A3 A3A4 A4B4 B4C4 C4D4 D4E4 E4E3 E3E2 E2E1 E1E2 E2E3 E3E4 E4D4 D4C4 C4B4 B4B3 B3B2 B2B3 B3B4 B4B3 B3A3 A3A2 A2A1 A1A0 A0B0 B0C0 C0D0" id="route-ext-15" />
    <route edges="B4C4 C4C3 C3B3 B3A3 A3A4 A4B4 B4C4 C4C3 C3D3 D3C3 C3B3 B3A3 A3B3 B3C3 C3C4 C4B4 B4C4 C4C3 C3C2 C2C1 C1C0 C0C1 C1C2 C2C3 C3C2 C2C3 C3C4 C4B4 B4A4 A4A3 A3A2 A2A3 A3B3 B3C3 C3D3 D3E3 E3E2 E2E1 E1E0 E0D0 D0C0 C0B0 B0A0 A0A1 A1A2 A2A3 A3A2 A2A3 A3B3 B3C3 C3D3 D3E3 E3E2 E2E1 E1E0 E0D0 D0C0 C0C1 C1C2 C2C3 C3B3 B3C3 C3D3 D3D2 D2D1 D1D0 D0C0 C0B0 B0A0 A0A1 A1A2 A2A3 A3A4 A4B4 B4C4 C4D4 D4E4 E4E3 E3E2 E2E1 E1E0 E0D0 D0C0 C0C1 C1C2 C2C3 C3C4 C4C3 C3B3 B3A3 A3A2 A2A1 A1A0 A0B0 B0C0 C0B0 B0B1 B1B2 B2B3 B3A3 A3A4 A4B4 B4C4 C4D4 D4E4 E4E3 E3D3 D3C3 C3B3 B3A3 A3A4 A4B4 B4C4 C4D4 D4E4 E4E3 E3D3 D3E3 E3E2 E2E1 E1E0 E0D0 D0C0 C0C1 C1C2 C2C3 C3C4 C4C3 C3C2 C2C1 C1D1 D1E1 E1D1 D1C1 C1C2 C2C3 C3C4 C4C3 C3C2 C2C1 C1C0 C0D0 D0E0 E0E1 E1D1 D1C1 C1B1 B1B0 B0C0 C0D0 D0E0 E0E1 E1D1 D1D0 D0E0 E0E1" id="route-ext-16" />
    <route edges="B1A1 A1B1 B1C1 C1D1 D1E1 E1D1 D1C1 C1B1 B1B2 B2B1 B1B2 B2B3 B3B4 B4A4 A4A3 A3A2 A2A1 A1A0 A0B0 B0B1 B1B2 B2B3 B3A3 A3B3 B3C3 C3C2 C2C3 C3C2 C2C1 C1B1 B1A1 A1A0 A0B0 B0C0 C0C1 C1C2 C2D2 D2D1 D1C1 C1C2 C2C1 C1B1 B1A1 A1B1 B1B2 B2C2 C2D2 D2C2 C2C3 C3C2 C2D2 D2C2 C2B2 B2A2 A2A3 A3A4 A4B4 B4C4 C4D4 D4D3 D3D2 D2D1 D1D0 D0D1 D1D2 D2D3 D3E3 E3E2 E2D2 D2D3 D3D4 D4D3 D3D2 D2D1 D1D0 D0C0 C0B0 B0A0 A0A1 A1B1 B1C1 C1C0 C0C1 C1C2 C2C3 C3B3 B3C3 C3C2 C2C1 C1B1 B1B2 B2B3 B3C3 C3D3 D3E3 E3D3 D3C3 C3B3 B3B4 B4C4 C4C3 C3C2 C2C3 C3D3 D3D2 D2D1 D1D0 D0D1 D1D2 D2D3 D3D2 D2C2 C2B2 B2A2 A2B2 B2A2 A2A3 A3B3 B3C3 C3C2 C2B2 B2B1 B1B2 B2B3 B3C3 C3D3 D3D2 D2D1 D1D0 D0D1" id="route-ext-17" />
    <route edges="B2B3 B3C3 C3C2 C2C1 C1C0 C0D0 D0E0 E0E1 E1E0 E0D0 D0D1 D1D2 D2D3 D3D2 D2C2 C2B2 B2B3 B3C3 C3C2 C2C1 C1C0 C0B0 B0B1 B1C1 C1D1 D1E1 E1E0 E0D0 D0C0 C0B0 B0B1 B1B2 B2B3 B3B4 B4C4 C4B4 B4A4 A4A3 A3A2 A2B2 B2C2 C2D2 D2E2 E2E1 E1E0 E0D0 D0D1 D1D2 D2E2 E2E1 E1D1 D1D2 D2D3 D3E3 E3D3 D3C3 C3B3 B3A3 A3A2 A2A1 A1B1 B1C1 C1D1 D1E1 E1E2 E2E3 E3E4 E4D4 D4C4 C4B4 B4B3 B3B2 B2B1 B1B0 B0C0 C0C1 C1D1 D1D0 D0C0 C0C1 C1C2 C2C3 C3C2 C2B2 B2B3 B3C3 C3C2 C2C1 C1C0 C0D0 D0C0 C0B0 B0B1 B1B0 B0A0 A0A1 A1A0 A0B0 B0A0 A0A1 A1B1 B1A1 A1A0 A0B0 B0C0 C0D0 D0D1 D1D2 D2D3 D3D4 D4D3 D3E3 E3E4 E4D4 D4D3 D3D2 D2D1 D1C1 C1C2 C2C3 C3C4 C4C3 C3B3 B3A3 A3B3 B3B2 B2B1 B1B0 B0B1 B1B2 B2C2 C2D2 D2E2 E2D2 D2D1 D1E1" id="route-ext-18" />
    <route edges="B3A3 A3B3 B3B2 B2B1 B1C1 C1B1 B1A1 A1A2 A2A1 A1A0 A0B0 B0C0 C0C1 C1D1 D1C1 C1B1 B1B2 B2B3 B3C3 C3D3 D3E3 E3E2 E2E1 E1E0 E0D0 D0D1 D1D2 D2E2 E2E1 E1D1 D1C1 C1C2 C2C1 C1C2 C2D2 D2D1 D1C1 C1B1 B1A1 A1A2 A2B2 B2C2 C2D2 D2D1 D1D0 D0D1 D1D2 D2D3 D3C3 C3C2 C2B2 B2B3 B3C3 C3B3 B3B2 B2B1 B1B0 B0C0 C0D0 D0C0 C0C1 C1C2 C2C3 C3B3 B3B4 B4A4 A4A3 A3B3 B3C3 C3D3 D3E3 E3E4 E4D4 D4C4 C4B4 B4B3 B3A3 A3A4 A4B4 B4C4 C4D4 D4D3 D3D2 D2C2 C2B2 B2C2 C2D2 D2E2 E2E1 E1D1 D1C1 C1C2 C2C3 C3C2 C2C1 C1C0 C0B0 B0B1 B1B2 B2B3 B3C3 C3D3 D3C3 C3B3 B3C3 C3D3 D3D2 D2D1 D1D0 D0C0 C0B0 B0B1 B1B2 B2B1 B1B2 B2C2 C2D2 D2E2 E2D2 D2D3 D3D4 D4D3 D3D2 D2C2 C2B2 B2B3 B3C3 C3D3 D3D2 D2D1 D1E1" id="route-ext-19" />
    <route edges="C2D2 D2D3 D3E3 E3E2 E2E3 E3E4 E4D4 D4C4 C4B4 B4A4 A4A3 A3A2 A2A1 A1A2 A2A3 A3A4 A4B4 B4C4 C4D4 D4D3 D3D2 D2D1 D1C1 C1B1 B1A1 A1A0 A0B0 B0C0 C0D0 D0D1 D1D2 D2D3 D3D4 D4E4 E4E3 E3E4 E4D4 D4C4 C4B4 B4A4 A4A3 A3A2 A2A1 A1B1 B1C1 C1D1 D1D2 D2D3 D3E3 E3E2 E2E1 E1D1 D1C1 C1B1 B1A1 A1B1 B1C1 C1D1 D1E1 E1E0 E0D0 D0E0 E0E1 E1E2 E2D2 D2C2 C2B2 B2B1 B1A1 A1B1 B1C1 C1C2 C2C3 C3B3 B3A3 A3A2 A2A3 A3A4 A4B4 B4A4 A4A3 A3B3 B3C3 C3D3 D3E3 E3D3 D3C3 C3C2 C2C1 C1B1 B1B0 B0C0 C0B0 B0A0 A0A1 A1A2 A2B2 B2C2 C2C1 C1C0 C0B0 B0B1 B1B2 B2C2 C2D2 D2E2 E2E3 E3E2 E2E1 E1E0 E0D0 D0D1 D1D2 D2D3 D3C3 C3B3 B3B2 B2A2 A2A3 A3A4 A4B4 B4B3 B3B2 B2B1 B1B0 B0A0 A0A1 A1A2 A2A3 A3B3 B3C3 C3D3 D3E3 E3E2 E2E1 E1E2 E2D2 D2D3 D3E3" id="route-ext-20" />
    <route edges="C4D4 D4D3 D3D2 D2D1 D1D0 D0C0 C0C1 C1C2 C2D2 D2E2 E2E1 E1D1 D1C1 C1B1 B1A1 A1A0 A0B0 B0B1 B1B2 B2B3 B3B2 B2B1 B1A1 A1A2 A2B2 B2B1 B1B0 B0A0 A0A1 A1A2 A2A3 A3B3 B3C3 C3D3 D3D4 D4D3 D3D2 D2D1 D1C1 C1C0 C0C1 C1C2 C2D2 D2E2 E2E1 E1D1 D1C1 C1B1 B1C1 C1B1 B1B2 B2B3 B3B4 B4C4 C4D4 D4E4 E4E3 E3D3 D3C3 C3B3 B3A3 A3A2 A2A3 A3A2 A2A1 A1B1 B1A1 A1A2 A2A3 A3A4 A4B4 B4C4 C4D4 D4E4 E4E3 E3E2 E2E1 E1D1 D1C1 C1B1 B1C1 C1D1 D1E1 E1D1 D1D0 D0C0 C0B0 B0A0 A0A1 A1B1 B1B0 B0C0 C0D0 D0E0 E0E1 E1D1 D1D0 D0D1 D1C1 C1C0 C0B0 B0B1 B1C1 C1C0 C0B0 B0B1 B1B2 B2B3 B3A3 A3A2 A2A1 A1B1 B1B2 B2A2 A2B2 B2C2 C2D2 D2D1 D1E1 E1E0 E0D0 D0C0 C0B0 B0B1" id="route-ext-21" />
    <route edges="B3B4 B4C4 C4D4 D4E4 E4E3 E3E4 E4D4 D4D3 D3D2 D2D1 D1D0 D0E0 E0E1 E1D1 D1C1 C1B1 B1B0 B0B1 B1B2 B2C2 C2D2 D2D1 D1C1 C1B1 B1A1 A1A2 A2A3 A3B3 B3C3 C3D3 D3E3 E3E2 E2E1 E1E0 E0D0 D0C0 C0B0 B0C0 C0D0 D0D1 D1D2 D2D3 D3D4 D4C4 C4B4 B4B3 B3A3 A3B3 B3C3 C3C2 C2C1 C1B1 B1B2 B2B3 B3B4 B4B3 B3A3 A3B3 B3C3 C3C2 C2C1 C1C0 C0B0 B0A0 A0A1 A1A2 A2A1 A1A2 A2A3 A3B3 B3C3 C3C4 C4D4 D4E4 E4E3 E3E2 E2D2 D2D3 D3D4 D4C4 C4B4 B4C4 C4D4 D4E4 E4E3 E3E4 E4D4 D4C4 C4D4 D4E4 E4E3 E3E2 E2D2 D2E2 E2D2 D2C2 C2C1 C1C0 C0C1 C1C2 C2C3 C3C2 C2C1 C1D1 D1D0 D0C0 C0C1 C1C2 C2C1 C1C0 C0B0 B0B1 B1C1 C1C0 C0D0 D0E0 E0E1 E1E2 E2E3 E3D3 D3C3 C3B3 B3A3 A3B3 B3C3 C3D3 D3D2 D2C2 C2C1 C1C2 C2C3 C3D3 D3D2 D2E2 E2E1 E1E0 E0D0 D0C0" id="route-ext-22" />
    <route edges="A3B3 B3B2 B2A2 A2A3 A3B3 B3C3 C3D3 D3C3 C3B3 B3B2 B2B1 B1B2 B2C2 C2C1 C1C0 C0B0 B0B1 B1B2 B2C2 C2B2 B2B1 B1B2 B2B3 B3C3 C3D3 D3D4 D4D3 D3D2 D2D1 D1D0 D0E0 E0E1 E1E2 E2E3 E3D3 D3C3 C3B3 B3B4 B4C4 C4D4 D4D3 D3D2 D2D1 D1D0 D0D1 D1D2 D2C2 C2B2 B2C2 C2D2 D2E2 E2D2 D2C2 C2B2 B2B3 B3C3 C3C2 C2C1 C1B1 B1A1 A1B1 B1B2 B2B1 B1C1 C1D1 D1C1 C1C2 C2C3 C3C4 C4D4 D4D3 D3C3 C3B3 B3A3 A3A4 A4B4 B4B3 B3B2 B2B1 B1B0 B0B1 B1B2 B2B3 B3B4 B4B3 B3B2 B2B3 B3C3 C3C2 C2D2 D2D3 D3E3 E3D3 D3D2 D2C2 C2B2 B2A2 A2A1 A1A0 A0B0 B0C0 C0D0 D0E0 E0E1 E1E0 E0D0 D0C0 C0B0 B0B1 B1B2 B2A2 A2B2 B2B1 B1B0 B0A0 A0A1 A1A2 A2B2 B2C2 C2D2 D2E2 E2D2 D2D3 D3D4" id="route-ext-23" />
    <route edges="E0D0 D0C0 C0C1 C1C2 C2C3 C3C4 C4C3 C3C2 C2C1 C1B1 B1B0 B0C0 C0D0 D0E0 E0E1 E1E2 E2E3 E3D3 D3C3 C3D3 D3D2 D2D1 D1D0 D0C0 C0B0 B0C0 C0C1 C1C2 C2C3 C3C4 C4B4 B4C4 C4C3 C3C2 C2C1 C1C0 C0C1 C1C2 C2D2 D2C2 C2C3 C3C4 C4B4 B4A4 A4A3 A3A2 A2B2 B2C2 C2D2 D2E2 E2E1 E1D1 D1C1 C1B1 B1A1 A1A2 A2B2 B2C2 C2D2 D2E2 E2E1 E1E0 E0D0 D0C0 C0B0 B0B1 B1B2 B2A2 A2A1 A1A0 A0B0 B0C0 C0D0 D0E0 E0E1 E1E2 E2E3 E3E2 E2E1 E1E0 E0D0 D0C0 C0B0 B0A0 A0A1 A1B1 B1C1 C1D1 D1E1 E1E0 E0D0 D0D1 D1D2 D2D3 D3E3 E3E4 E4D4 D4C4 C4C3 C3C2 C2B2 B2B3 B3B2 B2B1 B1A1 A1B1 B1C1 C1D1 D1E1 E1D1 D1C1 C1C2 C2C3 C3C2 C2B2 B2A2 A2A3 A3A4 A4B4 B4C4 C4D4 D4E4 E4E3 E3E2 E2E1 E1E0 E0D0 D0D1 D1D2 D2D3 D3E3 E3E4 E4D4 D4E4 E4E3 E3E2 E2E1 E1D1 D1C1 C1B1 B1A1 A1A2 A2A3 A3B3 B3C3 C3C2 C2C1 C1C0 C0B0 B0B1 B1C1 C1C2 C2D2 D2D3 D3E3 E3E2 E2E1 E1E0 E0D0 D0D1 D1D2 D2D3 D3D4 D4D3 D3D2 D2D1 D1D0 D0C0 C0B0" id="route-ext-24" />
    <route edges="D0D1 D1D2 D2D3 D3E3 E3E4 E4D4 D4C4 C4B4 B4A4 A4A3 A3A4 A4B4 B4A4 A4A3 A3A4 A4B4 B4C4 C4C3 C3C2 C2C3 C3D3 D3E3 E3E4 E4D4 D4C4 C4B4 B4B3 B3B2 B2B1 B1B2 B2B3 B3B4 B4C4 C4D4 D4E4 E4E3 E3D3 D3C3 C3B3 B3A3 A3B3 B3B2 B2B1 B1B0 B0B1 B1B0 B0A0 A0A1 A1B1 B1C1 C1D1 D1D2 D2D3 D3E3 E3D3 D3D2 D2D3 D3E3 E3D3 D3C3 C3B3 B3A3 A3A2 A2A1 A1A0 A0B0 B0C0 C0C1 C1B1 B1B0 B0C0 C0D0 D0E0 E0E1 E1E2 E2E3 E3E2 E2D2 D2C2 C2D2 D2C2 C2B2 B2A2 A2A3 A3A4 A4B4 B4B3 B3B2 B2B1 B1A1 A1A2 A2B2 B2C2 C2D2 D2D1 D1C1 C1B1 B1A1 A1B1 B1B2 B2A2 A2A1 A1A0 A0B0 B0C0 C0D0 D0E0 E0E1 E1D1 D1C1 C1B1 B1B2 B2B3 B3C3 C3B3 B3B2 B2B1 B1B0 B0B1 B1B2 B2B3 B3C3 C3D3 D3C3 C3B3 B3C3 C3C4 C4D4 D4E4" id="route-ext-25" />
    <route edges="D0E0 E0E1 E1E2 E2E3 E3E4 E4D4 D4C4 C4C3 C3C2 C2B2 B2A2 A2A3 A3B3 B3C3 C3D3 D3E3 E3E2 E2E1 E1E0 E0D0 D0C0 C0C1 C1D1 D1D0 D0E0 E0E1 E1E2 E2D2 D2C2 C2B2 B2B1 B1B0 B0C0 C0D0 D0E0 E0E1 E1E0 E0D0 D0E0 E0E1 E1E2 E2E3 E3D3 D3D2 D2C2 C2B2 B2A2 A2A3 A3A4 A4B4 B4B3 B3B2 B2A2 A2A3 A3B3 B3A3 A3B3 B3C3 C3D3 D3D2 D2D1 D1C1 C1C2 C2C3 C3D3 D3E3 E3E2 E2D2 D2D3 D3C3 C3C2 C2B2 B2A2 A2A3 A3B3 B3B2 B2B1 B1A1 A1B1 B1C1 C1C2 C2C3 C3C4 C4D4 D4D3 D3D2 D2D1 D1D0 D0D1 D1D0 D0C0 C0B0 B0A0 A0A1 A1A2 A2A3 A3A4 A4B4 B4B3 B3B2 B2A2 A2B2 B2B1 B1A1 A1A2 A2B2 B2C2 C2D2 D2D3 D3D2 D2D1 D1D0 D0C0 C0B0 B0A0 A0A1 A1A2 A2B2 B2C2 C2D2 D2E2 E2D2 D2C2 C2D2 D2E2 E2E3 E3E4 E4D4 D4C4 C4B4 B4C4 C4C3 C3C2 C2C1 C1B1" id="route-ext-26" />
    <route edges="A2B2 B2C2 C2D2 D2D3 D3D2 D2D1 D1C1 C1C2 C2D2 D2E2 E2E1 E1D1 D1C1 C1C2 C2B2 B2B1 B1B0 B0C0 C0D0 D0E0 E0E1 E1E2 E2E3 E3D3 D3C3 C3B3 B3A3 A3B3 B3C3 C3C2 C2D2 D2D1 D1D2 D2D3 D3E3 E3E4 E4D4 D4C4 C4B4 B4B3 B3B2 B2A2 A2A3 A3A4 A4B4 B4A4 A4A3 A3A2 A2A1 A1A0 A0B0 B0B1 B1B2 B2B3 B3C3 C3D3 D3D4 D4E4 E4E3 E3E2 E2D2 D2C2 C2C3 C3C4 C4D4 D4D3 D3D2 D2D1 D1D0 D0D1 D1D2 D2D3 D3E3 E3E2 E2E1 E1D1 D1E1 E1D1 D1C1 C1C2 C2C3 C3C4 C4C3 C3C2 C2C1 C1D1 D1D0 D0D1 D1D0 D0C0 C0B0 B0A0 A0A1 A1B1 B1C1 C1D1 D1D2 D2D3 D3D4 D4C4 C4B4 B4A4 A4A3 A3A2 A2A1 A1A0 A0B0 B0C0 C0D0 D0E0 E0E1 E1E2 E2E3 E3D3 D3C3 C3B3 B3A3 A3A4 A4B4 B4B3 B3B2 B2B1 B1A1 A1A0 A0B0 B0A0 A0A1 A1A2 A2B2" id="route-ext-27" />
    <route edges="C4C3 C3B3 B3A3 A3A2 A2A3 A3B3 B3C3 C3D3 D3E3 E3E2 E2D2 D2C2 C2B2 B2A2 A2B2 B2C2 C2D2 D2E2 E2E1 E1E0 E0D0 D0C0 C0B0 B0B1 B1B2 B2B3 B3C3 C3D3 D3D2 D2C2 C2C3 C3C4 C4C3 C3C2 C2B2 B2B3 B3B4 B4B3 B3B2 B2C2 C2C1 C1B1 B1B2 B2C2 C2B2 B2B3 B3B4 B4B3 B3B2 B2B1 B1B0 B0A0 A0A1 A1A2 A2A3 A3B3 B3C3 C3D3 D3D4 D4D3 D3D2 D2C2 C2B2 B2C2 C2C1 C1D1 D1E1 E1D1 D1E1 E1E2 E2E3 E3E2 E2E1 E1E0 E0D0 D0C0 C0B0 B0C0 C0C1 C1C2 C2B2 B2C2 C2C3 C3C4 C4B4 B4C4 C4D4 D4E4 E4E3 E3E2 E2E1 E1E2 E2E1 E1E0 E0D0 D0D1 D1D0 D0C0 C0B0 B0A0 A0A1 A1A2 A2B2 B2A2 A2A3 A3A2 A2B2 B2C2 C2D2 D2E2 E2D2 D2D1 D1D0 D0D1 D1D2 D2D3 D3E3 E3D3 D3C3 C3B3 B3A3 A3A2 A2A1 A1A2 A2A3 A3A4 A4B4 B4C4 C4D4 D4D3 D3C3 C3B3 B3A3" id="route-ext-28" />
    <route edges="C1B1 B1B2 B2B3 B3B2 B2B1 B1C1 C1C0 C0C1 C1C2 C2C3 C3C4 C4B4 B4A4 A4A3 A3B3 B3C3 C3C2 C2C1 C1C0 C0C1 C1C2 C2C3 C3D3 D3E3 E3E4 E4D4 D4C4 C4C3 C3C2 C2C1 C1C0 C0C1 C1C2 C2D2 D2E2 E2E1 E1D1 D1C1 C1B1 B1A1 A1A2 A2A3 A3B3 B3C3 C3B3 B3A3 A3A4 A4B4 B4C4 C4C3 C3C2 C2C1 C1D1 D1D0 D0C0 C0C1 C1D1 D1D2 D2D3 D3D2 D2C2 C2B2 B2A2 A2A1 A1A2 A2B2 B2C2 C2C1 C1B1 B1B2 B2A2 A2B2 B2B1 B1B0 B0A0 A0A1 A1A2 A2A3 A3A4 A4B4 B4C4 C4D4 D4E4 E4E3 E3E2 E2E3 E3E2 E2D2 D2C2 C2D2 D2D1 D1D0 D0C0 C0C1 C1C2 C2C3 C3D3 D3E3 E3D3 D3C3 C3C4 C4C3 C3C2 C2D2 D2E2 E2E3 E3E4 E4D4" id="route-ext-29" />
    <route edges="A3A4 A4B4 B4C4 C4D4 D4C4 C4D4 D4E4 E4E3 E3E2 E2E1 E1E0 E0D0 D0C0 C0B0 B0A0 A0A1 A1A2 A2A3 A3B3 B3C3 C3D3 D3D4 D4C4 C4B4 B4B3 B3B2 B2B1 B1B0 B0B1 B1B2 B2B3 B3B4 B4C4 C4D4 D4D3 D3D2 D2D1 D1D0 D0C0 C0B0 B0A0 A0A1 A1B1 B1B0 B0A0 A0A1 A1A2 A2B2 B2B3 B3C3 C3C2 C2C1 C1D1 D1C1 C1B1 B1A1 A1A2 A2A1 A1B1 B1C1 C1D1 D1E1 E1E2 E2E3 E3E4 E4D4 D4C4 C4B4 B4B3 B3B2 B2A2 A2B2 B2B1 B1B2 B2C2 C2D2 D2E2 E2E3 E3E2 E2E1 E1E0 E0D0 D0D1 D1D2 D2D3 D3E3 E3E4 E4D4 D4D3 D3D2 D2C2 C2C3 C3C2 C2B2 B2B3 B3B2 B2B1 B1C1 C1D1 D1E1 E1E2 E2E3 E3E4 E4D4 D4C4 C4D4 D4E4 E4E3 E3E2 E2E3 E3E2 E2E1 E1D1 D1C1 C1B1 B1A1 A1A0 A0B0 B0A0 A0A1 A1A2 A2A3 A3B3 B3C3 C3D3 D3D2 D2D1 D1D0 D0C0 C0D0 D0C0 C0C1 C1C2 C2D2 D2C2 C2C3 C3B3 B3B2 B2B1 B1A1" id="route-ext-30" />
    <route edges="A3B3 B3C3 C3C2 C2C1 C1C0 C0C1 C1B1 B1A1 A1A2 A2A3 A3B3 B3C3 C3D3 D3D4 D4C4 C4B4 B4A4 A4A3 A3A2 A2A1 A1A0 A0B0 B0C0 C0D0 D0E0 E0E1 E1E2 E2E3 E3D3 D3E3 E3E4 E4D4 D4E4 E4E3 E3D3 D3C3 C3B3 B3B4 B4C4 C4D4 D4D3 D3D2 D2D1 D1D0 D0C0 C0B0 B0B1 B1B2 B2B3 B3C3 C3C2 C2C1 C1B1 B1A1 A1A2 A2B2 B2C2 C2C3 C3C4 C4D4 D4E4 E4E3 E3E2 E2D2 D2C2 C2C3 C3C2 C2B2 B2B3 B3B4 B4C4 C4D4 D4D3 D3D2 D2D1 D1C1 C1B1 B1A1 A1B1 B1B0 B0C0 C0D0 D0E0 E0E1 E1E2 E2D2 D2C2 C2B2 B2B1 B1B2 B2B3 B3A3 A3B3 B3C3 C3D3 D3E3 E3E2 E2D2 D2D1 D1D0 D0D1 D1D2 D2D3 D3E3 E3E2 E2E1 E1D1 D1C1 C1B1 B1A1 A1A2 A2A3 A3B3 B3C3 C3C2 C2C1 C1C0 C0B0 B0A0 A0A1 A1A2 A2A3 A3B3 B3C3 C3C4 C4B4 B4A4 A4A3 A3A2 A2A1 A1B1 B1C1 C1D1 D1C1 C1C2 C2C1 C1C2 C2C3 C3D3 D3D4" id="route-ext-31" />
    <route edges="C2D2 D2C2 C2C1 C1C2 C2C3 C3D3 D3E3 E3D3 D3D4 D4C4 C4C3 C3C2 C2C1 C1C0 C0B0 B0A0 A0A1 A1B1 B1C1 C1D1 D1D0 D0C0 C0B0 B0B1 B1B2 B2A2 A2B2 B2C2 C2D2 D2D1 D1C1 C1B1 B1B2 B2B3 B3A3 A3A2 A2A3 A3B3 B3C3 C3D3 D3E3 E3E4 E4D4 D4C4 C4C3 C3C2 C2C1 C1B1 B1B2 B2C2 C2C1 C1C0 C0D0 D0E0 E0E1 E1E2 E2E3 E3E4 E4D4 D4C4 C4D4 D4D3 D3D2 D2D1 D1D0 D0C0 C0B0 B0C0 C0D0 D0D1 D1D2 D2D3 D3E3 E3E2 E2E1 E1E0 E0D0 D0C0 C0B0 B0B1 B1B2 B2C2 C2C1 C1B1 B1A1 A1A2 A2B2 B2C2 C2C1 C1D1 D1C1 C1C2 C2C1 C1C2 C2C3 C3D3 D3D4 D4C4 C4C3 C3C2 C2C1 C1B1 B1C1 C1C2 C2C1 C1B1 B1A1 A1A2 A2A3 A3B3 B3C3 C3C2 C2C3 C3D3 D3D2 D2D1 D1D0 D0C0 C0B0 B0B1 B1B2 B2B3 B3B4 B4A4 A4A3 A3A2 A2A1 A1A0 A0B0 B0C0 C0D0 D0D1 D1D2 D2E2" id="route-ext-32" />
    <route edges="C4C3 C3C2 C2C1 C1C0 C0D0 D0C0 C0B0 B0A0 A0A1 A1A2 A2B2 B2B1 B1B0 B0C0 C0D0 D0E0 E0E1 E1E0 E0D0 D0C0 C0B0 B0A0 A0A1 A1B1 B1C1 C1D1 D1C1 C1B1 B1A1 A1A2 A2A3 A3B3 B3C3 C3D3 D3E3 E3E4 E4D4 D4D3 D3C3 C3C4 C4C3 C3C2 C2C1 C1C0 C0B0 B0B1 B1B2 B2B3 B3C3 C3B3 B3B2 B2B1 B1B0 B0A0 A0A1 A1A2 A2B2 B2C2 C2C3 C3D3 D3E3 E3E2 E2D2 D2D3 D3D4 D4E4 E4E3 E3E2 E2E1 E1D1 D1C1 C1C2 C2D2 D2C2 C2B2 B2A2 A2A3 A3A2 A2A1 A1A0 A0B0 B0A0 A0A1 A1A2 A2A3 A3B3 B3C3 C3D3 D3E3 E3E4 E4D4 D4C4 C4B4 B4A4 A4A3 A3A4 A4B4 B4C4 C4C3 C3C2 C2B2 B2A2 A2A3 A3A2 A2B2 B2C2 C2D2 D2D3 D3D4 D4D3 D3D2 D2D1 D1C1 C1B1 B1C1 C1C2 C2C3 C3D3 D3C3 C3D3 D3E3 E3E2 E2E1 E1D1 D1C1 C1B1 B1B2 B2B1 B1C1 C1D1 D1E1 E1D1 D1C1 C1B1 B1B0 B0B1 B1B2 B2C2 C2D2" id="route-ext-33" />
    <route edges="D3C3 C3B3 B3B4 B4B3 B3B2 B2C2 C2D2 D2E2 E2E1 E1D1 D1C1 C1B1 B1B2 B2B3 B3B2 B2B1 B1B0 B0B1 B1C1 C1B1 B1B2 B2C2 C2D2 D2E2 E2E1 E1D1 D1C1 C1C2 C2C3 C3D3 D3C3 C3D3 D3D2 D2D1 D1D2 D2D1 D1D0 D0D1 D1C1 C1B1 B1B2 B2C2 C2D2 D2E2 E2E1 E1D1 D1C1 C1B1 B1A1 A1A0 A0B0 B0B1 B1B0 B0B1 B1B2 B2B3 B3A3 A3B3 B3C3 C3D3 D3D2 D2E2 E2D2 D2D3 D3D4 D4E4 E4E3 E3D3 D3C3 C3C4 C4D4 D4D3 D3D2 D2C2 C2B2 B2A2 A2A3 A3A2 A2B2 B2C2 C2D2 D2E2 E2E1 E1E0 E0D0 D0D1 D1D2 D2C2 C2C3 C3D3 D3E3 E3D3 D3D2 D2C2 C2B2 B2B3 B3B4 B4C4 C4D4 D4D3 D3D2 D2D1 D1C1 C1B1 B1C1 C1C2 C2C3 C3C4 C4B4 B4C4 C4C3 C3B3 B3C3 C3D3 D3C3 C3D3 D3D4 D4C4 C4B4 B4B3 B3B2 B2B1 B1B0" id="route-ext-34" />
    <route edges="D4D3 D3D2 D2D1 D1D0 D0C0 C0B0 B0B1 B1B2 B2C2 C2B2 B2B1 B1B0 B0A0 A0A1 A1A2 A2A3 A3B3 B3C3 C3D3 D3C3 C3C2 C2C3 C3C2 C2C1 C1C0 C0B0 B0B1 B1B2 B2B3 B3B4 B4B3 B3B2 B2B1 B1B0 B0C0 C0D0 D0E0 E0E1 E1E2 E2E3 E3D3 D3C3 C3B3 B3A3 A3A2 A2A1 A1A2 A2B2 B2C2 C2D2 D2E2 E2E1 E1D1 D1C1 C1B1 B1B2 B2C2 C2C1 C1B1 B1A1 A1A2 A2A3 A3B3 B3C3 C3D3 D3E3 E3E2 E2D2 D2C2 C2B2 B2B3 B3B2 B2B1 B1A1 A1A0 A0B0 B0B1 B1B2 B2B3 B3C3 C3C2 C2C1 C1D1 D1E1 E1D1 D1D2 D2D1 D1E1 E1E2 E2E1 E1D1 D1C1 C1C0 C0B0 B0C0 C0B0 B0A0 A0A1 A1A2 A2B2 B2B3 B3B4 B4C4 C4D4 D4E4 E4E3 E3E2 E2E1 E1D1 D1C1 C1D1 D1C1 C1B1 B1A1 A1A2 A2A1 A1A0 A0B0 B0C0 C0D0 D0E0 E0E1 E1D1 D1C1 C1B1 B1A1 A1A0 A0B0 B0C0 C0C1 C1C2 C2C3 C3C4 C4D4 D4D3 D3D2 D2C2 C2B2 B2B1" id="route-ext-35" />
    <route edges="D4E4 E4E3 E3E2 E2E1 E1D1 D1C1 C1B1 B1A1 A1A0 A0B0 B0C0 C0D0 D0D1 D1D2 D2D3 D3C3 C3B3 B3B2 B2A2 A2A3 A3A4 A4B4 B4C4 C4D4 D4D3 D3D2 D2C2 C2B2 B2B3 B3C3 C3D3 D3D2 D2D1 D1C1 C1B1 B1B2 B2B3 B3B4 B4B3 B3B2 B2C2 C2B2 B2A2 A2A1 A1A0 A0B0 B0B1 B1B2 B2B3 B3C3 C3B3 B3A3 A3A4 A4B4 B4A4 A4A3 A3A2 A2A1 A1A0 A0B0 B0A0 A0A1 A1B1 B1C1 C1D1 D1C1 C1D1 D1D0 D0C0 C0B0 B0B1 B1B2 B2B3 B3C3 C3D3 D3E3 E3D3 D3C3 C3B3 B3B2 B2B1 B1A1 A1A2 A2A3 A3B3 B3C3 C3D3 D3C3 C3D3 D3E3 E3E2 E2D2 D2C2 C2C3 C3D3 D3D2 D2D1 D1E1 E1D1 D1C1 C1B1 B1A1 A1A0 A0B0 B0C0 C0C1 C1C2 C2C3 C3B3 B3C3 C3C2 C2C1 C1B1 B1C1 C1C2 C2C3 C3D3 D3E3 E3D3 D3D2 D2D1 D1C1 C1B1" id="route-ext-36" />
    <route edges="E1D1 D1C1 C1B1 B1A1 A1A0 A0B0 B0C0 C0D0 D0D1 D1D2 D2D3 D3E3 E3E2 E2D2 D2C2 C2B2 B2A2 A2B2 B2C2 C2D2 D2D1 D1D2 D2E2 E2D2 D2D3 D3D4 D4D3 D3D2 D2E2 E2D2 D2C2 C2B2 B2A2 A2A1 A1A0 A0B0 B0C0 C0C1 C1D1 D1C1 C1B1 B1A1 A1A2 A2A3 A3A4 A4B4 B4C4 C4D4 D4D3 D3D2 D2D1 D1D2 D2C2 C2B2 B2B3 B3C3 C3C4 C4C3 C3C2 C2B2 B2A2 A2A3 A3B3 B3B2 B2C2 C2D2 D2D3 D3D4 D4C4 C4D4 D4E4 E4E3 E3E2 E2D2 D2D3 D3E3 E3D3 D3C3 C3B3 B3B4 B4B3 B3C3 C3D3 D3D2 D2D1 D1D0 D0C0 C0B0 B0C0 C0D0 D0E0 E0E1 E1E2 E2E3 E3D3 D3D2 D2D1 D1D0 D0E0 E0E1 E1E2 E2D2 D2C2 C2B2 B2C2 C2D2 D2D1 D1E1 E1D1 D1C1 C1B1 B1B2 B2B3 B3A3 A3A2 A2B2 B2B3 B3B4 B4C4 C4D4 D4D3 D3D2 D2E2 E2D2 D2C2 C2B2 B2B3 B3B4 B4B3 B3A3" id="route-ext-37" />
    <route edges="E4E3 E3D3 D3C3 C3C4 C4C3 C3C2 C2C3 C3C2 C2B2 B2C2 C2C1 C1C0 C0B0 B0B1 B1A1 A1A0 A0B0 B0C0 C0C1 C1C2 C2C3 C3C4 C4D4 D4E4 E4E3 E3E4 E4D4 D4D3 D3D2 D2D1 D1D0 D0D1 D1C1 C1C0 C0C1 C1C2 C2C3 C3B3 B3B4 B4A4 A4A3 A3A2 A2B2 B2C2 C2C1 C1C2 C2D2 D2E2 E2E3 E3D3 D3C3 C3C4 C4D4 D4D3 D3D4 D4C4 C4B4 B4A4 A4A3 A3B3 B3C3 C3D3 D3E3 E3E2 E2D2 D2D3 D3D4 D4D3 D3D2 D2D1 D1C1 C1C0 C0C1 C1C2 C2D2 D2E2 E2E1 E1E0 E0D0 D0C0 C0B0 B0C0 C0C1 C1C2 C2B2 B2B3 B3C3 C3D3 D3E3 E3E2 E2E1 E1E0 E0D0 D0C0 C0D0 D0D1 D1E1 E1D1 D1C1 C1B1 B1B2 B2B3 B3C3 C3C2 C2C1 C1D1 D1C1 C1B1 B1B2 B2B3 B3B4 B4B3 B3B2 B2B1 B1C1 C1D1 D1E1 E1E0 E0D0 D0C0 C0B0 B0B1 B1B2 B2B3 B3A3 A3B3 B3C3 C3D3 D3E3 E3E2 E2D2 D2C2 C2B2 B2B3 B3C3" id="route-ext-38" />
    <route edges="C1B1 B1C1 C1D1 D1E1 E1E2 E2E3 E3E4 E4D4 D4C4 C4B4 B4B3 B3B4 B4A4 A4A3 A3A2 A2A1 A1B1 B1B2 B2B3 B3B4 B4C4 C4D4 D4D3 D3D2 D2C2 C2B2 B2A2 A2B2 B2B1 B1B0 B0C0 C0D0 D0E0 E0E1 E1E2 E2E3 E3E4 E4D4 D4C4 C4B4 B4B3 B3B2 B2B1 B1B0 B0C0 C0D0 D0E0 E0E1 E1D1 D1C1 C1B1 B1A1 A1A2 A2B2 B2C2 C2C1 C1C0 C0D0 D0E0 E0E1 E1E2 E2D2 D2C2 C2B2 B2A2 A2A1 A1A0 A0B0 B0A0 A0A1 A1B1 B1C1 C1C2 C2C1 C1C0 C0B0 B0B1 B1C1 C1C0 C0B0 B0C0 C0D0 D0E0 E0E1 E1E2 E2E3 E3E4 E4D4 D4E4 E4E3 E3D3 D3C3 C3B3 B3B4 B4C4 C4D4 D4D3 D3D2 D2D1 D1D2 D2D3 D3D4 D4C4 C4B4 B4C4 C4D4 D4D3 D3D2 D2D1 D1D0 D0D1 D1C1 C1B1 B1A1 A1A2 A2B2 B2C2 C2D2 D2C2 C2C1 C1D1 D1C1 C1B1 B1B2 B2B3 B3C3 C3B3 B3A3 A3A4 A4B4 B4C4 C4D4 D4D3 D3D2 D2D1 D1C1 C1C0 C0D0 D0C0 C0B0 B0A0 A0A1 A1A2 A2A3 A3B3" id="route-ext-39" />
    <route edges="C3D3 D3C3 C3B3 B3A3 A3A4 A4B4 B4C4 C4C3 C3B3 B3B2 B2A2 A2B2 B2B3 B3B4 B4C4 C4D4 D4D3 D3D2 D2D1 D1E1 E1E0 E0D0 D0C0 C0C1 C1C2 C2B2 B2B1 B1B2 B2B1 B1B0 B0A0 A0A1 A1A2 A2B2 B2A2 A2A1 A1A0 A0B0 B0C0 C0C1 C1C2 C2C1 C1D1 D1C1 C1D1 D1D2 D2D3 D3D4 D4C4 C4C3 C3C2 C2C1 C1C0 C0C1 C1C2 C2C3 C3B3 B3C3 C3C4 C4D4 D4E4 E4E3 E3E2 E2E1 E1E0 E0D0 D0C0 C0B0 B0B1 B1B2 B2B3 B3C3 C3D3 D3E3 E3E4 E4D4 D4C4 C4C3 C3B3 B3C3 C3D3 D3D4 D4E4 E4E3 E3E2 E2E1 E1E0 E0D0 D0E0 E0E1 E1E2 E2E3 E3D3 D3C3 C3C2 C2B2 B2B3 B3C3 C3C2 C2C1 C1C0 C0D0 D0E0 E0E1 E1E2 E2E3 E3D3 D3D2 D2D3 D3D2 D2E2 E2E3 E3D3 D3C3 C3B3 B3A3 A3A2 A2A1 A1B1 B1C1 C1D1 D1D0 D0C0 C0B0 B0A0" id="route-ext-40" />
    <route edges="C4B4 B4A4 A4A3 A3A4 A4B4 B4C4 C4C3 C3B3 B3B2 B2A2 A2A3 A3A4 A4B4 B4C4 C4D4 D4E4 E4E3 E3E2 E2D2 D2C2 C2B2 B2A2 A2B2 B2A2 A2A3 A3A4 A4B4 B4B3 B3B2 B2B1 B1B2 B2C2 C2C1 C1B1 B1A1 A1A2 A2B2 B2A2 A2A3 A3A2 A2A1 A1A0 A0B0 B0C0 C0D0 D0C0 C0C1 C1C2 C2C3 C3B3 B3C3 C3D3 D3E3 E3E2 E2D2 D2C2 C2B2 B2B3 B3A3 A3B3 B3B2 B2B1 B1B0 B0A0 A0A1 A1A2 A2A3 A3B3 B3C3 C3D3 D3E3 E3E2 E2D2 D2C2 C2B2 B2A2 A2A3 A3A4 A4B4 B4C4 C4D4 D4E4 E4E3 E3E2 E2E1 E1E2 E2E1 E1D1 D1C1 C1B1 B1A1 A1B1 B1B2 B2C2 C2B2 B2C2 C2D2 D2D3 D3D4 D4D3 D3D2 D2D3 D3D2 D2C2 C2C1 C1C2 C2C3 C3D3 D3D4 D4D3 D3D2 D2D1 D1D0 D0D1 D1D0 D0C0 C0B0 B0B1 B1B2 B2B3 B3C3 C3D3 D3C3 C3C2 C2C1 C1C0 C0B0 B0A0 A0A1 A1A2 A2B2 B2C2 C2D2 D2E2 E2E3 E3E4 E4D4 D4D3 D3D2 D2D1 D1D0 D0E0 E0E1 E1E2 E2D2 D2C2 C2B2 B2A2 A2A1 A1A2 A2B2" id="route-ext-41" />