<?xml version="1.0" encoding="UTF-8"?>
<!-- generated on 2023-02-13 23:10:55.474350 by $Id$ v1_8_0+0044-4820708f3d
  options: -n drones.net.xml -b 0 -e 60 -p 1 <doubleminus>random -i 64 -o drones.trips.xml
-->
<routes>
    <trip id="0" depart="0.00" from="A8A9" to="H4H3" via="E1D1 I9I8 C1C0 C2C3 H3H4 H7H8 I1I0 F4F3 B3B2 A1A0 G2H2 B2B1 B7B6 D3C3 E2F2 G3F3 F6E6 C8C9 A6A5 A3A2 I9J9 E1E0 G3G2 J8I8 C2C1 F9E9 B7B6 D0D1 E5E4 E7E8 F5F6 E6E5 H2H3 F7E7 D2D1 C1C0 J1J0 F5E5 D2E2 G5G4 C0D0 B6B7 J9J8 E0F0 I9H9 H5G5 J6I6 I7J7 H2H1 H6H5 H6G6 I2H2 D9E9 C6C7 C0D0 D0C0 D4E4 E9D9 I5J5 H4H3 D0C0 G7G8 J3J2 C9B9" />
    <trip id="1" depart="1.00" from="B4B5" to="H9I9" via="H4H3 D6D5 G7H7 B5C5 B4A4 B6B5 B3B4 B0A0 D1E1 H8H7 E5E4 B3C3 J4J5 I1J1 D2D1 G4G3 E4E3 E1F1 H6I6 B5A5 I0I1 E2E3 J7J8 E4F4 I4H4 E7F7 E1E0 I3I2 A0A1 E4E5 I6H6 H9I9 A2B2 F8F7 D4E4 H5I5 D7D8 I9J9 H7I7 C2C3 J5J6 B2A2 E4E5 J5J6 H4I4 F0F1 F8G8 G0G1 H4H3 D9C9 I6J6 B9B8 I7J7 G8H8 A9A8 I6J6 B2C2 B7A7 H1I1 I9J9 C8C9 B6B7 I8H8 D2D3" />
    <trip id="2" depart="2.00" from="E1E2" to="J0J1" via="I2J2 G7H7 F8F7 D3C3 A4A5 E1F1 D2D3 E4F4 J4J3 B1A1 C9B9 C9D9 J3I3 B7B6 E3D3 F6F5 C7B7 I3J3 B8B7 I7H7 H4H3 F7E7 G6G5 H1G1 J1J0 G2H2 F5E5 D4C4 I2I1 J1J2 J2I2 B4B5 J0J1 C2C3 F1F2 H5H6 G2G1 J1J2 G7H7 I2I1 C7C6 B4C4 G0G1 F5F4 F3F2 F7E7 C5C4 E5E6 B9C9 J9J8 J5J4 E6E5 D0C0 I5I4 G9G8 I5I4 E8F8 D7E7 F2F1 F8G8 F2G2 H1I1 F9G9 E5F5" />
    <trip id="3" depart="3.00" from="B1C1" to="G3G2" via="A4A5 G5H5 J8I8 G3F3 H7H6 D2C2 I4I5 C4C3 J3J4 J4J5 I2J2 D9C9 I3I2 C3C2 D3C3 D2C2 J8J7 D2D1 I3H3 D0C0 F5F4 C2B2 I6J6 H7H6 E4F4 J1J0 E0F0 I6J6 B5A5 F1E1 E8E9 I4J4 F4F5 C6D6 I7I6 B9B8 H2H1 F3F4 I0J0 F4E4 B4A4 F5G5 I2H2 C5C4 A5A6 B4C4 G2F2 G5G4 H3I3 J6J5 F6F5 H6I6 C3D3 C8C9 C4B4 C9B9 D0E0 A3B3 D6C6 H6G6 C4C5 A3A2 I4I5 A8A9" />
    <trip id="4" depart="4.00" from="B1B0" to="A1A0" via="G3G4 I7I6 B2B3 I5I4 G2F2 I7H7 E4E5 D1D0 B0A0 E2F2 A8A9 I1J1 A8A7 I4J4 G7G6 D7C7 H3H4 H7G7 F2E2 I7H7 A1A0 C8B8 F9F8 J2J3 E1E2 J4J5 E9F9 A3B3 C8B8 B7B6 H6G6 I5I4 C3C4 B2B3 A1B1 D5D6 B3A3 F0E0 E5E6 I4I3 G5H5 I8H8 I8H8 D7D6 E3F3 J8I8 B8B9 H5H4 C0D0 B3B2 A1A2 F4G4 E2D2 G0H0 D1D2 C7C8 I6J6 J1J0 D9C9 H9I9 F8E8 C6B6 F5E5 H5H4" />
    <trip id="5" depart="5.00" from="E8D8" to="G4G3" via="G5F5 E3E4 F9F8 D3E3 H7G7 D5C5 D9D8 I1I0 C7C6 A1B1 F4G4 I5H5 D9D8 G4F4 C2C3 E3E4 G1G0 H8H9 G2F2 F0F1 D3D2 G7G8 E3E2 H7I7 I8I7 C4B4 D3E3 D3D4 C6B6 G7G6 E8F8 G1H1 B8C8 D2E2 F1F0 E2D2 A3A4 A4A5 E2E1 H5H4 C1D1 J3J4 H4H3 H3I3 E2E3 F1F2 G7G8 E4D4 F9F8 E9E8 C6B6 I2H2 D1D2 E5E4 I6I5 B0A0 H2H1 C1C0 A1B1 B4A4 A5A4 F2G2 G5G4 E0E1" />
    <trip id="6" depart="6.00" from="G5H5" to="D0C0" via="H0H1 C8C7 D5D6 I4I3 E1E0 E1E0 D4E4 H3G3 H0H1 B8B7 B8B7 E8E7 B1C1 I7J7 G2F2 F6F5 H5H6 B1B0 F3G3 G3H3 J9I9 B3A3 A1A2 A5A6 E2F2 F4F5 D8C8 B4C4 B5B4 E7E6 G7G8 E7F7 D4D5 H7G7 H7G7 H4H3 F6F5 A4A5 F8F9 D1C1 C4B4 G2G3 D5D4 I6I5 D7D8 C2D2 E4E3 E0F0 G5G4 C6B6 D0D1 B4B5 F1E1 E7D7 E8E9 I7I8 A4B4 C8C7 C7C8 F7F8 I3J3 F2E2 G9H9 C3C4" />
    <trip id="7" depart="7.00" from="C7C6" to="G1G0" via="J6J7 G7G8 F3F2 B8A8 D4E4 H8H7 J4I4 E1E0 C6C7 D8D9 H8G8 C6B6 C7D7 E0D0 I3H3 E0D0 B8B9 J9I9 G0F0 G1G2 D1E1 D7D6 J6J5 F4F5 D2C2 E3F3 E3E2 G5G4 D1E1 I9I8 G7G8 D8C8 D3E3 I2H2 C4C5 C9B9 I4I3 I7I8 D1C1 C9D9 D9D8 F8E8 B2C2 I2H2 E2D2 F4G4 F0E0 J4I4 A2A1 G3G4 E7F7 A0B0 I1H1 J2J3 I7I8 A0A1 H6I6 J7J6 E4E3 J6I6 E1E0 D2C2 E0F0 G7G8" />
    <trip id="8" depart="8.00" from="A3B3" to="G5H5" via="F1F2 J5J6 E5D5 D2D3 J1J0 B1B2 B3C3 I7J7 J7J8 C6D6 G5G6 B4B3 F3F4 F1F0 B2A2 D1E1 C6D6 H7H6 B0C0 B9A9 A5A6 C4C5 B8B9 G7G6 H6H5 I2J2 D3D2 I0H0 H8I8 C1D1 G8H8 C5C6 I4J4 J1J2 H5H6 D0C0 H1H0 G6F6 G8G9 I6H6 J6J5 H9G9 A2B2 D8D9 D1C1 H2H3 C6C7 G4G3 H9H8 I5J5 C8C9 I4H4 I7I8 H4H5 I3J3 E0F0 A1B1 H5H6 I8I9 I1I0 G5G6 J3I3 F8F9 F9G9" />
    <trip id="9" depart="9.00" from="C5D5" to="A7B7" via="I8J8 E1D1 D6D5 E2F2 B8C8 B5B4 G7G8 I0J0 H7H8 G1G2 C6B6 J2J3 C1C0 H2I2 G1H1 D8E8 B7B6 D1E1 G2G1 B9C9 J6J7 C6B6 B6B5 B4C4 D0E0 F6E6 E4E3 B5B6 C2C1 C5D5 A6A5 J2J1 A4A3 A1B1 C8B8 F5E5 A5A4 J1J0 G2H2 I1H1 E5E4 J6I6 A8B8 J8J9 B7B6 F8E8 F4F5 I7I6 C7D7 G5G4 D1E1 A4A5 E7F7 D8D9 B4A4 D7D8 H3H2 G3F3 D8D7 F5F4 C3C4 G4G3 F8G8 H3H4" />
    <trip id="10" depart="10.00" from="E6E5" to="C5D5" via="G8F8 F3G3 D4D3 C3C4 E6D6 C0C1 G6F6 B3C3 E6D6 D8D9 I8J8 C2D2 H6I6 I4I3 C8C9 J6J5 D3D4 F1E1 I9H9 C0D0 D6D5 F6E6 C4C3 H2G2 B1C1 G8F8 H6H5 I0J0 E4F4 B7C7 B8B9 D9D8 E4E5 F1G1 J4J5 B8C8 H8G8 G7G8 E4F4 D1E1 F4F3 C5C6 F9E9 I4J4 I4I3 G2G3 I1J1 H7H8 H5G5 J6J5 B4A4 C9C8 E5E4 C9D9 F7F6 D8C8 G3H3 C5C4 H6G6 I2I1 J5J6 D8E8 I6I7 A0A1" />
    <trip id="11" depart="11.00" from="A6B6" to="H9H8" via="C1D1 E7E6 F3G3 I6I7 J5I5 D5C5 I0J0 D4C4 F7G7 I4I5 A2A3 A8A9 A4A5 C4D4 D8C8 F6G6 D7D8 A5A6 F2G2 I0J0 F2E2 A4A3 C9C8 C7D7 J1J0 B1B2 J3I3 F0F1 J1J0 B4B5 E2E1 F5G5 J3J4 G9H9 E6D6 B7C7 F8G8 E9E8 E1F1 C7C6 H1H2 C2B2 D4D3 G3H3 H8H9 G1G2 F6F5 F3E3 F0G0 D3D4 I8J8 D6E6 I0I1 E3E4 E5E6 F5F6 G6G7 J6J5 D2D3 H5H6 G3H3 F3E3 C4B4 I4J4" />
    <trip id="12" depart="12.00" from="J7I7" to="C5C6" via="J4J5 I4I5 G7H7 E1F1 D4D3 J5J4 A5B5 I2I1 J7J6 B2C2 I5I4 C7C8 I4I5 D9C9 G2F2 D2E2 I2H2 D7C7 I2I3 D5D4 J7I7 C6B6 B5B4 F0E0 C0D0 I1I0 B4B5 H0I0 E9E8 F6E6 A8B8 J0I0 C3B3 H2I2 A4A3 E0F0 H0H1 A2A1 I5J5 C0B0 C0B0 I1I0 D4D3 F8F7 H2G2 G1F1 D0C0 F2F3 F3G3 H4I4 E1E2 J6J5 G6H6 E4D4 C1B1 B2B1 E4E5 E4D4 C6C5 H0I0 G8G9 D5C5 E3D3 I0J0" />
    <trip id="13" depart="13.00" from="H3I3" to="B3C3" via="C6D6 J5J4 G3H3 H3H4 D5E5 F7F8 I6H6 I5H5 E7E8 E7E6 I5H5 E3E2 H2H1 C2D2 I4I5 C4C3 I7I6 D2C2 E9F9 I6H6 C0D0 E5F5 H0G0 A8A7 C0C1 C9C8 F8F9 F2G2 E9D9 C6B6 I5J5 E4E3 I6I5 H7I7 F0G0 J3I3 J0J1 H5H6 I7I6 G3H3 G3G4 F3E3 A8A9 F4E4 B9A9 B9B8 E3F3 G0G1 C6D6 E1E2 D9C9 D4E4 A1A0 E8D8 F3F2 D3E3 H9H8 G5F5 B6B7 I4J4 C6D6 F9G9 F5G5 C0B0" />
    <trip id="14" depart="14.00" from="C0B0" to="F9E9" via="F8F7 D0D1 B8B9 E0D0 D2D3 I1I0 B4B5 D4E4 A1A0 G3G4 E6D6 A2A3 H2G2 F1E1 E7E6 F2F3 F1F0 B0C0 E9E8 I4I3 I8J8 C3C2 I0I1 J2J3 C5B5 B6A6 G0H0 C2D2 C8C7 D7C7 J0J1 I7I8 G3H3 E3E2 A9B9 A6A7 H5H4 D8C8 F3G3 F2G2 B0B1 I4H4 I1I0 C5C6 G3H3 B4C4 A8B8 D3D4 G3G2 D8D7 G4H4 D0E0 B8B9 G6F6 J8I8 H7I7 F5F6 J2I2 I6J6 D1C1 G3G4 A8B8 D5D6 J0J1" />
    <trip id="15" depart="15.00" from="J6J5" to="B4B5" via="H8H7 F8G8 E1E0 G2G1 D5D4 E4D4 E0E1 A9B9 C6C5 F8G8 C4C5 C3C4 B2B3 E4E5 C1D1 I2I1 B8A8 I8I7 D8E8 F8F9 G3G4 H2G2 A5B5 I3I4 E8E7 E1D1 F1G1 F8E8 F5E5 C2D2 F0F1 H2H1 I9H9 B1B2 C3B3 A3B3 B8A8 B6A6 B6C6 E3E4 I4H4 C7C6 E3E2 E9D9 C9B9 I5I6 I1I2 G1F1 E4E3 J0I0 H2I2 F7E7 J5J4 J7I7 D4E4 B7C7 A5A4 I9H9 I2H2 E5F5 E2F2 H4G4 F4E4 H5H6" />
    <trip id="16" depart="16.00" from="H0I0" to="F6F7" via="J0J1 G7F7 H0I0 D3D4 I2I1 E8E7 J4J3 H5I5 F2G2 A6A7 E7D7 F0E0 H0G0 J9I9 G3F3 H1G1 E8E9 B2B1 G3F3 D4D3 B0A0 F4F3 G9F9 B4B3 D4D5 C4C5 H8H7 J2J1 J2J1 E5E4 C2C1 E7F7 B0A0 J7I7 E9D9 F7F6 C3B3 E1E2 G7G8 E5D5 A9B9 F7E7 F2E2 F0F1 E9F9 I6I7 E2D2 B3C3 E5E4 C9D9 E4E5 D3D4 H3H4 A9B9 D6E6 J6I6 A8B8 H3H4 F1F2 A8A9 H4G4 F3E3 E3D3 J8J9" />
    <trip id="17" depart="17.00" from="A2B2" to="J7I7" via="F3E3 B4B5 D1C1 J1J0 B0B1 B8A8 B3B2 D2C2 A7A8 E9F9 I8J8 F0F1 C1C0 D3E3 I8J8 A2A1 D3D4 H3I3 C5C6 J1J0 C4C3 B7C7 D6D5 A7A8 G0H0 I2I3 F1E1 C6C7 D0E0 H9I9 I5I4 E3E2 F9F8 G7G8 D1E1 G5F5 E6F6 I7I6 E8D8 C4C5 E7F7 C1B1 C6C7 C3D3 E2E1 E8E7 F4F3 B2A2 H5H6 C1C2 B8A8 B1B0 I4I5 G7G6 J8I8 G3F3 H1H0 G4G5 H9H8 F5E5 B2B1 A6B6 J0J1 J8J7" />
    <trip id="18" depart="18.00" from="F7G7" to="J4J3" via="E9E8 I6J6 D8D9 H9G9 A5B5 H9G9 D5D6 G1G0 C9B9 F0E0 C7D7 C9C8 A3A2 J4J5 H6H5 G0H0 J6J7 F9F8 G6F6 D8E8 G4G5 C9D9 F8F9 A1A2 I2I3 H3H4 J2I2 A6A7 F5E5 C7B7 D0D1 H2H1 G8G7 J4J3 H6G6 H1H0 B1A1 D3E3 D7D6 C0C1 F6G6 H4G4 F1E1 H3G3 G4G5 F3F2 C5B5 H4G4 I3I4 F2G2 G3G2 A4B4 E3D3 D7D6 A7A6 G4F4 I8J8 E4F4 D2E2 B7B8 G8G7 F7F6 E4E5 J8I8" />
    <trip id="19" depart="19.00" from="J8J9" to="E5E4" via="I3I4 H9I9 F9G9 J5J4 C5D5 E8D8 I8I9 J1I1 C6C7 H6G6 A6A5 I4I5 A5A4 F6E6 F3F2 D0E0 E1D1 C2C1 E4E3 H8I8 H7H8 B1C1 H5H4 C2C3 H6G6 H8I8 J0I0 B4B5 A8A9 C0D0 D5D4 I9J9 I2I1 I3H3 A2A1 B2B3 I6I7 D9D8 B8A8 F5G5 B0B1 C1B1 G2F2 B0A0 B3A3 I8J8 C5D5 H5H6 I2J2 A0B0 F4G4 C1C2 C6C7 I4I3 C6C5 B2B1 A2A1 G9H9 C2C1 F6E6 E7D7 B3B2 H8H9 E5D5" />
    <trip id="20" depart="20.00" from="I5I6" to="J0J1" via="E0E1 E5D5 E1F1 A2B2 D3C3 H6H7 B1B0 D1E1 G7F7 A7B7 D2E2 H2H3 D0D1 A5B5 E1E0 F2F3 E3E4 C8C7 C7D7 I4I5 G5F5 D3D4 B2B1 E2E3 J1I1 F2F3 J6J7 F2F3 E3E4 C5C4 G9F9 G2F2 C8C9 F1F2 A0B0 C8C7 C4D4 H4I4 H5G5 C5C6 J1J2 C4D4 I5J5 F3E3 I8H8 H5H4 B2B3 G8H8 C3B3 H3H4 F5G5 E5E4 I0J0 J2I2 D0E0 H5H6 G6H6 F3G3 C9B9 I5I6 C8D8 E7E6 J1I1 H9H8" />
    <trip id="21" depart="21.00" from="F0G0" to="E9D9" via="B7C7 H2G2 B4B3 D8D9 D5E5 F0G0 E0E1 J7J6 C7B7 H4H3 J5J4 C5B5 I6H6 B6B7 G6F6 A3B3 H3G3 I2H2 F4F3 G8F8 C0D0 C4D4 G6F6 J6J5 D7D6 E4F4 B3C3 G4G3 E2D2 D8C8 G7H7 G5F5 G1G0 F4G4 F3F2 G4F4 I7H7 D5E5 C2D2 E7F7 I9H9 B7A7 E1E2 I7H7 B8B7 G2F2 G8G7 G7F7 J9I9 B2B1 H6G6 E8E7 F2F3 D3D2 H7H8 H1I1 D3D4 D2D3 C6C7 I1I0 G3F3 D2D3 B3A3 E5D5" />
    <trip id="22" depart="22.00" from="I4I3" to="D5C5" via="J3J2 D1E1 A5A6 E4E3 D7E7 D4D3 F8G8 F4F3 H0G0 F7G7 D2D1 G4F4 I8H8 I9J9 A4B4 C9B9 J5J4 D1D0 H4G4 C7D7 H6I6 I2H2 D3D2 J2I2 E3E4 I2H2 J7J6 G6H6 G4F4 B2A2 I3I2 G8H8 J3I3 I5J5 H7H6 B2B3 H3G3 C0D0 H8H7 H2H1 F6F5 I8I9 C8C7 I3I4 D2D1 G4F4 I0H0 G2G3 G5F5 J6J5 B7B8 D4D3 F1E1 B9C9 C9C8 A7B7 E3E2 B2B3 B3C3 A0B0 C5C4 J7J6 E7F7 H3I3" />
    <trip id="23" depart="23.00" from="E9D9" to="C7D7" via="I6H6 H9I9 D6D5 F3F2 F4F3 F6G6 E4D4 D3D2 I0J0 J4J3 A9A8 E8F8 H1I1 C1C2 B5A5 F0E0 E8E9 D2D3 J3J2 H5H6 I8I7 B8A8 J5J6 G6G7 B1B0 E0F0 F6G6 A4A3 D8D7 H2H1 C8C9 E8E7 B1C1 A1B1 I0J0 F8G8 B3A3 H2G2 J3J4 A5A6 A5A4 C1C0 A6B6 G1G0 D3D4 J5I5 A4A3 E2E3 H1I1 H3H4 J3J2 D4D3 C2D2 G1H1 D0D1 G6G7 F2F1 D3E3 F7E7 F6E6 J9I9 C8D8 G0G1 A6B6" />
    <trip id="24" depart="24.00" from="J7I7" to="I8I7" via="F5G5 H3H2 D8D9 I5J5 B1B2 G2G3 A9B9 I6H6 B2B3 G5F5 D7D6 G4G3 H8I8 D6E6 G0H0 G3H3 G5H5 G4H4 F6F5 B3C3 G1G0 E5F5 G5F5 H7H8 H1I1 G4F4 C5C6 I9I8 C3C2 I6I5 F3F4 D0D1 B3B4 I5H5 E2D2 J3I3 I4J4 B3B4 D7D8 A5A4 J1J0 G2H2 H6I6 F2G2 H2G2 J1J2 A6B6 G2H2 A1A2 H6H5 D2E2 B1B0 A8B8 B6C6 F0G0 D2C2 E1D1 H6H7 I2I1 E9F9 I6I7 I8I7 H7G7 G0F0" />
    <trip id="25" depart="25.00" from="J5J4" to="C7C6" via="D6D5 J3J4 I8I7 A7A8 A7A8 D7C7 G8F8 H3I3 J8I8 F0E0 D1C1 F3F2 D4E4 G4H4 B8B7 I1H1 I8H8 G0F0 G7G6 B7A7 A5A4 D2E2 A2B2 G5G4 A5A6 B6A6 A3B3 A1A2 D8D9 A7A6 C6C5 D1E1 J9J8 I7J7 F9G9 I1I0 E0D0 D6C6 I6I7 H3I3 G3F3 B6B7 D2C2 I5I6 C5B5 I6H6 C9B9 A5A4 H0G0 C5C6 E8F8 B7B6 A1A2 J5J6 G4G3 D6E6 B5B4 G7H7 C5B5 E9E8 I1H1 J8I8 F3G3 B4B5" />
    <trip id="26" depart="26.00" from="D8C8" to="D3C3" via="E1F1 G4G5 D3E3 E3D3 H3G3 H9H8 I8J8 A3B3 G5G6 G2G3 H8H9 E8E7 D8D9 E1E2 B7C7 G6G7 I1J1 H1H2 C2C3 J3J2 F5F6 C4C5 B9C9 B1B2 B4C4 J4I4 C9D9 B6A6 A6A7 H2H1 D2D1 H5H6 F5E5 G4G5 D5E5 B7B8 H3G3 E7E6 G7H7 A3A2 H5I5 H3I3 E8E9 J8J9 F7E7 F0E0 F4F3 F0E0 J6I6 B7A7 C6C5 C6D6 I2H2 J6J7 D2D1 C2C1 B0B1 J7J6 G9F9 A3B3 B0A0 C1C2 G6G5 C3B3" />
    <trip id="27" depart="27.00" from="D2E2" to="I4J4" via="J2I2 J3J4 A6A5 C3D3 C8C7 G5F5 J3J2 C8C7 G7G6 I5H5 F5F6 C5C4 E9F9 D9C9 H8G8 F4G4 C4C5 A6A5 B0A0 C5D5 J3J2 J7J6 B8B9 D9C9 B5B6 F7E7 B2B1 C4C3 I5J5 H4G4 G4G3 A3A4 J8I8 A2A3 B2B1 D6D5 J8J9 E2E3 C9B9 E5D5 G2H2 C9D9 F9E9 D6E6 A0B0 E3E4 A8A7 E9F9 C4C5 C1D1 F7F8 E6E5 H2I2 G9H9 C8D8 H9G9 G8G7 H5H4 I0I1 E3E2 H4I4 J5J6 C1B1 G0F0" />
    <trip id="28" depart="28.00" from="H1I1" to="B6A6" via="E3F3 C9B9 C4C3 I7J7 B6C6 E3F3 E5F5 H6G6 G8H8 H4H3 J9J8 J4J3 I3I2 B5C5 F8G8 E3E4 A4A3 D2D3 G3G2 C3C4 G6H6 F9F8 B7A7 B4B5 E1E0 B8A8 B1C1 I8H8 F5F6 I3I4 G2G3 D1E1 G2F2 G5G6 A2A3 I5J5 H0I0 I0H0 E5E6 C2C3 C6C7 C7B7 B1B0 F2F3 B0C0 D5D6 A7A8 D1E1 F5F6 B1C1 H2H3 C2C1 J6J5 A9A8 E2D2 B8B9 F6F5 A4A5 E1D1 C8B8 J3J4 C4C3 C6C7 I0H0" />
    <trip id="29" depart="29.00" from="A8A9" to="J5J6" via="H1G1 H1G1 F0E0 F9E9 J5I5 D2D1 A2A3 A9A8 C0D0 I9I8 F6F7 E5D5 B5A5 E1F1 H9I9 B8B9 E6F6 I6I5 E6E7 A8A7 F4F5 F2E2 E5D5 E9E8 D6D5 I2I1 F0F1 J9J8 H1H2 A1A0 F8F9 C3C2 H2H3 I1I2 A2A1 A8B8 I7I8 B5C5 C5D5 D4E4 H9G9 H9H8 E8E9 I9H9 D6E6 E9D9 E5F5 F3G3 H0G0 D4C4 H5H6 F4F3 C4C5 G7G8 C9D9 D5D4 C3C2 B6A6 C4C3 E6E7 J7I7 I2J2 D8E8 I6I7" />
    <trip id="30" depart="30.00" from="J2J3" to="A3A2" via="A3A4 C4C3 B5A5 F6G6 D8D7 B9C9 E1D1 B6B7 J5J4 C2C1 H3I3 J4I4 H5G5 I8I7 H1G1 F3F4 D7D8 G8F8 I5H5 G3H3 I4I5 H4H5 D0E0 F1F2 F4F5 I8H8 B1C1 J5J6 G0G1 H1G1 A3A2 G6G7 F6F7 F6F7 G7H7 B0C0 G4F4 J1J0 J1J2 I3I2 F2G2 G8F8 J8J7 A2A3 F7E7 E6E5 I8H8 J5J4 B1A1 I1I2 H4H3 D2D1 C1C2 D1D2 E4F4 B5C5 F0F1 J3J4 A5B5 B1C1 E1E0 I6J6 B8B9 E3E2" />
    <trip id="31" depart="31.00" from="F6F5" to="H5I5" via="A7A8 G4G5 B9A9 I3I2 A9B9 D8E8 D2E2 G6G7 E3E4 B8B7 F1F2 J4J3 B0B1 H4H5 A4A5 A2A1 E7F7 I0I1 G6G5 E9E8 I0I1 D9C9 G6G5 E6E7 G9H9 B2B3 H1H2 H6I6 B2B3 A2A1 H3H4 B7A7 C1B1 H6H7 B1B0 C9C8 E6F6 E7D7 H8H7 A7A8 A7A6 E5E4 I6I7 F0F1 D7D8 G5G6 J3J2 E9F9 J7J8 C4B4 E8F8 H4H3 H7H8 G0F0 E2E3 I2I1 D6D5 B2C2 C9B9 F3F4 I3I4 E4E3 F1E1 H1H0" />
    <trip id="32" depart="32.00" from="B8B7" to="H7I7" via="B2B3 I2I3 D5E5 B6B7 H9H8 G8G9 D4E4 D9D8 B7A7 A5A6 J9J8 A6A7 J4J5 B5B6 C4D4 F7G7 B7C7 C6C5 C4D4 E0D0 J5I5 F4F5 I1I0 G9G8 E6E7 B6C6 J1I1 E6D6 E8F8 H7H6 G9F9 C8C9 C7D7 C8C7 B1B0 I1I0 F3G3 J8J7 A2B2 B2B1 A7A8 I2I1 H0I0 B1B0 G3H3 G6H6 A1B1 J6J7 B8B9 C3C4 F2F3 B1C1 B0A0 A5B5 F2F1 A6A7 C9D9 J1I1 D4D3 C7B7 F7E7 D2C2 F3E3 H1H2" />
    <trip id="33" depart="33.00" from="C5C6" to="G5G4" via="C0B0 J2J3 F0E0 A3A2 A3A2 I5J5 I3I2 D3C3 J8J7 C5C6 B7B8 H1I1 C1B1 G6F6 E4F4 G9F9 E8E9 A0A1 F6F5 I1J1 C8D8 F3F4 D1E1 B2B1 B8B9 D2D1 C1C2 J5I5 A4A5 H5I5 C4D4 B3B4 F7F6 J3I3 A3B3 J1I1 F9F8 D9C9 A3A4 J2J1 C0D0 J1J2 H0G0 C8D8 I3I2 J7I7 D6D5 C9B9 G9H9 E6F6 F1G1 C6C7 E2E3 H7I7 D2D1 C9B9 G8H8 I3H3 C0D0 I2J2 D1C1 D3C3 E1E0 J7J8" />
    <trip id="34" depart="34.00" from="D8E8" to="J1I1" via="A2A1 G7H7 D9E9 I7J7 F6F7 B2B3 C8D8 B3B4 J4J5 H7I7 D2D3 F4F3 I8J8 J0I0 F9E9 F4E4 I2J2 D4C4 J6J5 D5D6 E8F8 F2F1 H9I9 I2I3 E6F6 J2J1 D6E6 H5G5 H5H4 D3E3 H1G1 G2F2 G2F2 H7G7 H2I2 B6A6 H0G0 F0G0 A5B5 B8B9 J5J4 F3F2 H9H8 E1F1 G6H6 H8G8 J3J4 J9I9 I8I7 G3G2 E8F8 D8C8 C7D7 D4C4 B5C5 B7C7 I9H9 F4F5 D8C8 J6J5 E7E6 F6F5 F1E1 E9E8" />
    <trip id="35" depart="35.00" from="B0C0" to="I1I2" via="J7I7 F6F5 E3F3 I4I3 A9B9 I3H3 B0A0 J4J5 E4F4 G7G8 I2J2 F6F5 C0C1 F1F0 D8D7 C7B7 H1H0 C8B8 J5J6 D5C5 G2H2 J2I2 I6H6 H2H1 F7F8 I6I7 I1I0 C7B7 I3H3 G5G4 D3D2 B0B1 I4H4 D4E4 J8I8 A8A7 E8F8 E6F6 G1G2 J6I6 E8E7 A1A0 G4G5 G2F2 I3I4 D6D5 I4H4 F2F3 G6H6 D2D3 H2H3 J1J0 J5J6 D8C8 D8D7 H0G0 H1H0 E8E7 G9F9 J1J2 A9B9 D2D3 E6E5 D8E8" />
    <trip id="36" depart="36.00" from="C7B7" to="B1A1" via="G7G6 G5F5 E8E7 B3B2 D1E1 F6F5 H9G9 G5G6 E0E1 D5D4 A2A1 D6E6 F1G1 F5E5 E9F9 E7F7 J6J5 D9E9 H7I7 B1B0 J0I0 E0D0 F5E5 A1A0 D2D1 J5I5 G7F7 I1H1 D8D9 C8C9 I8I9 E0E1 A4B4 F4F5 J5J6 I7I6 B8B7 E0E1 D6E6 A7B7 B4A4 C2B2 F1F2 F2F1 C2C1 D3C3 H1I1 C3C4 C1D1 B6A6 E8F8 F2G2 D1D2 C6B6 B5B6 H4H5 D3D2 A8A9 A6A7 F3F2 D9C9 B1A1 B8C8 A1B1" />
    <trip id="37" depart="37.00" from="H8H9" to="D9E9" via="H0I0 C5C4 D2D1 D3E3 C5B5 A9B9 C6C5 E6E7 G0H0 B0B1 I1H1 E9F9 H2H3 I1H1 I6H6 C6D6 I3J3 G2G3 H3H2 D5C5 C6C7 G1F1 E6D6 A4A3 F4F5 H8H7 B5B6 C9D9 C9C8 E8D8 J7J6 I5J5 C9D9 D0D1 F4E4 D3C3 G7H7 I2I3 H1I1 I2H2 F4E4 D5E5 C0B0 B3B4 B5B6 J2I2 C6D6 F0F1 I9I8 F0E0 E4D4 E6E7 A8A9 E7D7 A7A6 D9E9 B7A7 B4B3 J4J5 G3H3 F1E1 E2D2 J4J5 H6G6" />
    <trip id="38" depart="38.00" from="E9E8" to="C5C4" via="H1I1 C6B6 I3I2 F3G3 D2C2 I6J6 F7F8 J1I1 F6E6 I9J9 F7G7 F1F0 I0I1 I9J9 I5H5 B3A3 J4J3 E2F2 I2I1 I6H6 F3G3 G6F6 H1H2 G0H0 B8B7 E0F0 H4H5 C9B9 D3D2 H8H9 I1H1 F3E3 G7G8 A4A3 H0H1 F6F7 H8H9 C0C1 B3B4 J2I2 H5G5 E0F0 E0E1 H1H0 C3C2 D1C1 G7H7 D4D3 B4C4 C6B6 C8C7 D5D4 H3H4 A1A2 F6G6 F4F3 D3D4 B0A0 B4B5 E2E1 D9E9 I9J9 B2B1 B0C0" />
    <trip id="39" depart="39.00" from="G4F4" to="J9I9" via="J8I8 H1H0 G9F9 I7H7 D6D5 I6I5 C8C7 J7I7 A6B6 D6C6 B1C1 I9H9 D0E0 B8B9 B4A4 G0G1 J3I3 B1B0 H3G3 A4A5 I3H3 G7H7 H8H7 A9B9 B6A6 F9E9 I8I9 A7A6 B3A3 G9G8 I0H0 B2C2 I8H8 H6I6 E8D8 G2G3 I4J4 D3C3 G7G6 C7C6 J1I1 C3B3 I2I1 D4D5 I5I4 E9F9 G4F4 A7B7 C6B6 J8J7 B7B6 B7A7 J7J6 E3E2 C6C5 E1F1 G8H8 I6I7 J5I5 E8E7 I3I4 C4C3 G3G2 D8E8" />
    <trip id="40" depart="40.00" from="F2G2" to="C4C5" via="C9D9 E3E2 E4F4 E4D4 I2J2 B3B2 D9E9 I9H9 G8H8 D7C7 D7D6 C0B0 G1G2 I5I4 C5B5 B4C4 I5H5 D7D6 H4I4 H7I7 E7E8 I5H5 G6G7 H4I4 G3G2 E6E5 J5J4 I2J2 F8E8 A7A8 G1G0 I1I0 D9D8 J6J7 J3J2 G5G4 H2I2 I2I1 J8J9 B7B8 G9H9 B8B9 B6B7 E7E8 E2D2 E3F3 B4B3 E9E8 G4H4 A8A7 C5B5 B1A1 G3G2 F1E1 H6I6 C8B8 E1F1 F8G8 I4I5 C5C6 A1B1 G9F9 E5D5 B3A3" />
    <trip id="41" depart="41.00" from="I0H0" to="H0G0" via="A5B5 C2B2 F4F5 A4A3 E9D9 B8B7 D6E6 J5J4 D3D4 H5I5 G8G9 D3C3 J0I0 D5D6 I7I6 J7I7 C4B4 H8H7 D0D1 B1B2 C4D4 B5B4 G3H3 E5F5 B6A6 H7I7 B2B3 F8E8 I7I6 B1C1 C9B9 A5B5 I4I5 D2D3 I7H7 J9I9 J3J2 B4C4 H0H1 G3F3 J1J2 B4B3 D4E4 D3D2 C7D7 A6A7 G5G6 A6A5 H8G8 J5J4 H6I6 A6B6 J3I3 J7J8 A3B3 A3B3 I2H2 G0H0 I9H9 F1F0 F9F8 H7H6 D4D5 H5G5" />
    <trip id="42" depart="42.00" from="I5J5" to="E0E1" via="C9D9 C2C1 H8I8 H5I5 F4F5 I1H1 I9I8 H1H0 C7D7 A5B5 D3E3 A8B8 I1J1 E8D8 G7F7 H1H2 E3E4 I5H5 I8H8 D6E6 E9F9 I3H3 B5A5 J8I8 G7H7 C9D9 J6J7 F1F0 H3I3 H3H2 F6E6 H6H5 B4C4 D7D8 F6E6 C8D8 H6H5 D2D3 G7G8 D3E3 D9D8 B8B7 H7H8 G2G1 B6C6 G5G4 F7E7 A9B9 F9F8 B2C2 G3G2 E0F0 D1C1 B3A3 I6I7 C0C1 D0D1 H8G8 C9D9 F3F4 I0I1 E2E1 G9G8 E5E4" />
    <trip id="43" depart="43.00" from="B0C0" to="B4A4" via="D8C8 D2D3 E6E7 C7C6 F0G0 C6C5 A5A6 E3E2 A7A8 G4F4 C9C8 D5D6 F8F9 I2I1 A8B8 A3A4 F3E3 J0J1 D5D4 A1A0 D8E8 F3F2 H0H1 F6E6 F4G4 G9F9 B0C0 I6J6 H7G7 J3J4 F2E2 I7H7 I7I6 E8F8 B0B1 E7D7 G9G8 E7F7 A3B3 H8H7 D7C7 B4A4 G3F3 F6E6 A3A4 I6I5 E3D3 G4G5 G5H5 A1A2 A6A5 H6G6 F5G5 E5E4 F7F6 J0J1 E8F8 J9I9 J7I7 F7E7 E6F6 H4G4 J2I2 E7F7" />
    <trip id="44" depart="44.00" from="C5C6" to="G4G3" via="D8C8 E0E1 G1F1 A9B9 D8D9 D3D2 E6E7 I5J5 E5E4 I8H8 J8J9 C7D7 F4G4 A8A7 I5I4 F0E0 J3J2 G9G8 B7B6 A4A3 E9D9 I2I1 C3B3 E3E2 C6B6 G4H4 E4E3 C6C5 B2A2 J7J6 A5B5 A6B6 G4F4 B3A3 B2C2 E3E2 G1G2 C1D1 C5B5 G1G0 G6F6 G2G1 F3E3 C5D5 F4F5 B2C2 A7B7 E7F7 I4I5 G5G4 H2H1 I7J7 G4G3 I3I4 B5B6 D6E6 I1H1 G2F2 D7D8 E5F5 G0G1 H9G9 F7G7 F5E5" />
    <trip id="45" depart="45.00" from="J5J6" to="I9I8" via="F1F2 E4E3 A6A7 H2H1 J6J5 C0D0 B7C7 I9H9 I4I5 D2D3 J3I3 J1I1 F5F4 G2F2 A8A9 C2B2 F3G3 D6E6 B6A6 D9E9 C7D7 C7B7 B3C3 C1C2 I7I8 F6F5 H5H4 C9D9 G7F7 H1H0 C2C1 E0E1 G4F4 C7B7 D5E5 H1I1 C6B6 D1D0 J6J5 C1B1 G1G0 A2A1 H7H8 G8G7 B3B4 F2E2 A5B5 G3H3 D1D0 E4F4 H5G5 D6D7 B6A6 I3H3 A0B0 G0H0 D3D4 A0B0 G6F6 C5C6 F0F1 D9C9 D1C1 A5A4" />
    <trip id="46" depart="46.00" from="G8G7" to="J3I3" via="D3D4 B4C4 E8E9 F7F8 B7B6 I4H4 C8C7 J8I8 A1A0 G3G4 A4A3 C1C2 F4G4 D7D8 H3I3 F0F1 C9C8 I0J0 F6F7 F3F2 G5F5 H8H7 I6H6 F7E7 C1C2 D1E1 F7F6 H5G5 A2A3 I0H0 E0D0 F7E7 A6A7 E7D7 G2F2 J5J6 F0G0 C2C3 B8C8 E7E6 B3B2 I5I4 A3A2 G2H2 F2F3 D2D1 F8E8 F7E7 D8D9 I8I9 A6B6 D8D7 I1I0 B5B4 A1A0 A2A3 H3I3 D3E3 G0F0 H3G3 E8D8 C2D2 E9F9 J0I0" />
    <trip id="47" depart="47.00" from="H8G8" to="I4I3" via="H9I9 I5I6 F5F6 G0F0 J5J6 J1J2 F5F6 D4D5 G4G5 G4H4 I6H6 I4I5 D1D2 I8J8 F2G2 B7B6 E6F6 J8I8 E4E5 D8C8 I9H9 I5I4 G2H2 H5I5 D2C2 A3A4 A1A0 E1F1 I4H4 A1A2 B3C3 H3H4 I8I7 G9H9 G4G5 J8J9 C2C1 H5I5 E4F4 F9E9 B2B3 I7I8 J3J2 J6J7 A3A2 F9E9 C7C6 B4B3 I4I5 I9J9 E7F7 E0E1 G6H6 B6A6 C4D4 D4D3 F6F5 D5D4 I7I8 B7B8 E0E1 D6E6 J5J4 A8A7" />
    <trip id="48" depart="48.00" from="J3J2" to="D3D2" via="C4C5 F1G1 E4E5 J8I8 G1G2 B4A4 I5I4 C9C8 G5F5 A4B4 F4F3 G2H2 C5D5 H3H2 H7H6 C5D5 C3C4 J4J3 C0D0 D7D8 D1E1 F3F4 F1E1 B8B7 C2C3 D8E8 C7C8 F3E3 C4C3 H5H4 I4J4 F8G8 H9I9 C3C2 E6D6 H5H6 I9J9 H1I1 D2E2 J2J3 G8G7 F4E4 C3B3 J4I4 G1G2 I7H7 J4I4 F5F6 B7C7 F4F5 I0H0 I1I2 D4E4 I9H9 E6E5 D5E5 C0B0 D4C4 A4A3 B5B4 G2G1 B2C2 D4C4 C2C3" />
    <trip id="49" depart="49.00" from="C1C2" to="J8J7" via="D3D4 B0B1 D2E2 I6I7 H9I9 A3A4 A1A2 C1B1 A1B1 E5F5 C8C7 C8B8 C1C2 D8D9 I8J8 E8E9 F0G0 I6H6 G5G6 G5H5 I5H5 G7G6 B5B6 I7J7 I8H8 I0H0 D0D1 B2B1 E9F9 I6H6 D4C4 J0I0 F5F6 B7C7 C4B4 I7I8 G3F3 H3I3 D3C3 A6A5 I1I0 E6E7 I0H0 I6J6 J7J8 G3F3 B4B3 I9J9 C9B9 B7C7 D9C9 F6F7 D2E2 E4E3 G9F9 J0I0 G6H6 H8G8 C5C4 D9C9 C1B1 C6C7 B6A6 D1E1" />
    <trip id="50" depart="50.00" from="E0E1" to="I6H6" via="D0E0 A2A3 D3C3 A1A2 A2A1 E3D3 B8B7 B7A7 F4E4 B2B1 G2F2 A2A3 C2D2 G9F9 C2C3 B2A2 F2F3 G0F0 D2E2 I1I0 C9C8 B2B1 C9D9 A7A8 G2G1 B3C3 H3H2 E6D6 F6F7 E7F7 B4C4 E3F3 G5F5 J7I7 G8G7 A2A3 B3B4 B6A6 C9D9 A4B4 J7J8 E8E7 D9C9 E7E6 G3F3 F7F6 F5F6 F5E5 A3A4 G3G2 D2C2 B3B4 H4H5 C1C2 C6B6 H7I7 H4H5 D2D3 F6F7 B1B0 D7E7 A6A7 H6I6 F5E5" />
    <trip id="51" depart="51.00" from="I6I7" to="E0D0" via="H9I9 H8H9 E4E3 J6I6 G3G4 J3J4 H6I6 G1G2 G5G6 C4C5 G5H5 E3D3 F2E2 H3I3 B7B8 F0G0 I5J5 J8J7 C6C7 E3D3 C9B9 B6B7 J9J8 C1D1 F4E4 H3G3 E2E3 B8C8 A1A2 C4D4 E7E8 G2G1 A4A5 J5J6 D2C2 C2C1 J9I9 C7C8 D7D6 H1G1 B3A3 D2E2 H1G1 A7B7 H5G5 J7I7 A3A2 E3E2 H8H7 B2C2 F1E1 C5D5 B9B8 B8B7 H3I3 J7J8 F6F7 B8B9 H1H0 D8D9 C2C1 G0F0 I4H4 E2E1" />
    <trip id="52" depart="52.00" from="F4E4" to="C8D8" via="G1G2 D7D8 G7H7 G5G6 E6E7 A7B7 E8D8 J3J4 H4I4 H8H9 H6H7 A7A8 G1G0 D9E9 G7H7 B9C9 C1B1 F5E5 I4I5 H9H8 J9J8 H1G1 F5F6 J2J1 C2C1 F4F5 G5H5 H1H2 C8C9 C3C4 E1E0 H7H6 D6D5 H0I0 F4F5 B7B6 F1F0 G1H1 C7B7 I0I1 H5I5 E3F3 I8I7 H7G7 D2C2 I8H8 G1H1 I8I9 E5E6 A0B0 E3E2 I1I2 A9A8 J2I2 F8F7 H6H5 H8G8 I4H4 H7G7 F4E4 E9F9 D9D8 H6G6 H5H6" />
    <trip id="53" depart="53.00" from="E8D8" to="G3G4" via="I2I1 A8B8 E5E6 D3D2 C6D6 B4B3 B2A2 B7C7 C9B9 D1E1 E4E3 D4D5 A8A9 G3H3 H7H8 I2I1 C2C1 I6J6 A5A4 E1E0 E0D0 G9H9 E3F3 J1J0 B6A6 G3G2 G9F9 E7F7 I4I3 J2J1 G4F4 C3D3 A4A3 J8J9 C3B3 C3C2 F2F1 G5F5 H6H5 I6I5 F3E3 J7J6 A5A6 G3G4 E1E0 I0I1 E8F8 C6C7 A6B6 E3D3 A7B7 C4D4 C7C6 G1G0 F3F2 E9F9 I1I2 H4G4 I8I7 G1F1 G7F7 D9D8 A5A6 A8B8" />
    <trip id="54" depart="54.00" from="C8B8" to="G5G4" via="G2G3 B8B9 G0F0 J9J8 B4B5 F9F8 J1J2 B2B1 C9C8 B9B8 A4B4 C7B7 E8E9 D6D5 J3J4 D8D7 F8E8 G2G3 B4A4 H6H5 F4G4 J8J9 I6I7 B3B4 D3C3 A3A4 E1D1 D9C9 H1I1 E7D7 I5I4 I3I4 F0E0 F4F3 I7H7 B1B2 G0G1 I6I7 D9D8 D4D3 F0E0 D0D1 E6F6 B1B0 J1J0 F5G5 D9E9 G5H5 G0F0 A0A1 H3I3 B2B3 B5B4 H1H2 G8F8 G4G5 E1E2 H2G2 H5H4 G5G4 E5E4 H5H6 J6J5 C5C6" />
    <trip id="55" depart="55.00" from="J6J7" to="D8E8" via="E4F4 I1I2 F6G6 F7G7 B4A4 B8A8 H9G9 E4F4 I4I3 H2I2 E3E4 C9B9 F8E8 F1F0 A6A5 H3H4 B3B4 H8H7 I8H8 I5I6 G9G8 B5A5 G8F8 G8G7 C8D8 G8F8 D0C0 G9F9 C8B8 A7B7 C7B7 F2G2 H2G2 I1I0 G4F4 E6E5 E5D5 E6D6 G6G5 F1E1 D9C9 G6G5 C4D4 I8I7 D2C2 H7G7 C1D1 H0H1 B2A2 D7D8 B7A7 J3J2 B5C5 C9B9 J5I5 F4G4 A7B7 H9I9 B6A6 A1A2 G6F6 B9C9 D7E7 D5D6" />
    <trip id="56" depart="56.00" from="B0A0" to="H1I1" via="G4G3 D3D4 F7F6 H5H4 I7I8 H5H4 B4B3 F2G2 G3F3 F4F3 J3J2 J0J1 D9C9 A8A9 E4D4 I2I3 G5H5 I4I5 F8E8 I1J1 A0A1 B6B7 H9G9 I1I2 A4A5 C2B2 D9C9 H3H2 D4D3 C8B8 D7E7 F9E9 G2F2 F1E1 B3B2 F5F6 I2J2 A2A1 E5E6 H5G5 G6F6 B9C9 B8A8 F3F4 J2I2 I5I6 I2I1 D5C5 F8F9 A2A1 F6G6 I7I8 I9I8 G3G4 G3F3 E4D4 D6D7 F1G1 B2A2 D0D1 H5H6 B8C8 A8B8 I7J7" />
    <trip id="57" depart="57.00" from="I0I1" to="F9F8" via="C3D3 I6J6 B7B6 B3A3 D9C9 B8B7 D1D2 H3H2 F1F0 I1I0 B8C8 B7B8 G3H3 J8J7 J8J9 E2E1 H0I0 C8C7 G0G1 D2C2 I4I5 I8J8 B7A7 D2D3 F7G7 D2D1 I6I5 A2B2 E2F2 D2E2 A4A3 E2D2 F2E2 B8C8 A2A3 I3H3 C4D4 F2E2 A1B1 I4I3 J7J6 H1G1 F1E1 E5E6 C0B0 B0C0 B0A0 E2E3 E9D9 G1G2 F6F5 G5G6 A2A3 F2F1 A8A7 J2J1 E4E3 A3B3 C1D1 C9D9 B6B7 I0J0 G2H2 D8C8" />
    <trip id="58" depart="58.00" from="E7D7" to="D7C7" via="E5E4 G0G1 G5H5 A1A0 B6B5 H9H8 F8G8 G5G4 H5H4 J3J2 E8E7 G8F8 B3C3 D1D0 B7A7 H3H4 D6C6 I0H0 A3A4 B5C5 J5I5 D7C7 D3D2 B2C2 E5E6 F6F7 D4C4 H6I6 C9B9 H7I7 D3C3 G1H1 E2D2 F9F8 A1B1 J9I9 F8F7 H4I4 H8H9 G3G4 H1I1 H7H6 E3E2 G8F8 C7D7 I5I4 I1H1 E8E9 D1C1 H5I5 G6H6 E6F6 G3G4 G6G5 D6D7 E5E6 F9F8 H8H7 B1A1 F5F4 E8F8 G6G5 J3J4 I9J9" />
    <trip id="59" depart="59.00" from="D3E3" to="B1A1" via="H9H8 H7G7 F6F7 E4E5 J0J1 F3G3 G0F0 C3C4 G4G5 F1G1 H8G8 D3E3 D2D3 C6C5 E5E4 G2F2 E8F8 H2H1 B2B3 H8H7 B7A7 A1A2 D9D8 E3E4 C5D5 A6A5 B1B2 E2E1 D0C0 A8A7 D4E4 F8F7 B2B1 F9G9 C6B6 G6H6 F4G4 F1F0 J8J9 C2C1 B9A9 G7G6 B9B8 A2A3 I4H4 H3G3 E4E3 G8G9 I5H5 J8I8 D1E1 H6H7 G5H5 J3J4 C7C8 G7H7 H6H7 C4D4 H3G3 I7H7 F7F6 F6F7 E8D8 G6H6" />
</routes>
