<?xml version='1.0' encoding='us-ascii'?>
<additional xmlns:xsi="http://www.w3.org/2001/XMLSchema-instance" xsi:noNamespaceSchemaLocation="http://sumo.dlr.de/xsd/additional_file.xsd">
	<poly id="building-0_0-0_0" type="building" fill="1" layer="-1.0" color="128,128,128" shape="14.999999999999996,14.999999999999996 51.66666666666666,14.999999999999996 51.66666666666666,51.66666666666666 14.999999999999996,51.66666666666666 14.999999999999996,14.999999999999996" height="19.541" />
	<poly id="building-0_0-0_1" type="building" fill="1" layer="-1.0" color="128,128,128" shape="14.999999999999996,56.66666666666667 51.66666666666666,56.66666666666667 51.66666666666666,93.33333333333333 14.999999999999996,93.33333333333333 14.999999999999996,56.66666666666667" height="20.779" />
	<poly id="building-0_0-0_2" type="building" fill="1" layer="-1.0" color="128,128,128" shape="14.999999999999996,98.33333333333333 51.66666666666666,98.33333333333333 51.66666666666666,135.0 14.999999999999996,135.0 14.999999999999996,98.33333333333333" height="17.051" />
	<poly id="building-0_1-0_0" type="building" fill="1" layer="-1.0" color="128,128,128" shape="56.66666666666667,14.999999999999996 93.33333333333333,14.999999999999996 93.33333333333333,51.66666666666666 56.66666666666667,51.66666666666666 56.66666666666667,14.999999999999996" height="23.404" />
	<poly id="building-0_1-0_1" type="building" fill="1" layer="-1.0" color="128,128,128" shape="56.66666666666667,56.66666666666667 93.33333333333333,56.66666666666667 93.33333333333333,93.33333333333333 56.66666666666667,93.33333333333333 56.66666666666667,56.66666666666667" height="29.343" />
	<poly id="building-0_1-0_2" type="building" fill="1" layer="-1.0" color="128,128,128" shape="56.66666666666667,98.33333333333333 93.33333333333333,98.33333333333333 93.33333333333333,135.0 56.66666666666667,135.0 56.66666666666667,98.33333333333333" height="16.166" />
	<poly id="building-0_2-0_0" type="building" fill="1" layer="-1.0" color="128,128,128" shape="98.33333333333333,14.999999999999996 135.0,14.999999999999996 135.0,51.66666666666666 98.33333333333333,51.66666666666666 98.33333333333333,14.999999999999996" height="23.879" />
	<poly id="building-0_2-0_1" type="building" fill="1" layer="-1.0" color="128,128,128" shape="98.33333333333333,56.66666666666667 135.0,56.66666666666667 135.0,93.33333333333333 98.33333333333333,93.33333333333333 98.33333333333333,56.66666666666667" height="32.593" />
	<poly id="building-0_2-0_2" type="building" fill="1" layer="-1.0" color="128,128,128" shape="98.33333333333333,98.33333333333333 135.0,98.33333333333333 135.0,135.0 98.33333333333333,135.0 98.33333333333333,98.33333333333333" height="13.935" />
	<poly id="building-0_0-1_0" type="building" fill="1" layer="-1.0" color="128,128,128" shape="14.999999999999996,165.0 51.66666666666666,165.0 51.66666666666666,201.66666666666669 14.999999999999996,201.66666666666669 14.999999999999996,165.0" height="20.135" />
	<poly id="building-0_0-1_1" type="building" fill="1" layer="-1.0" color="128,128,128" shape="14.999999999999996,206.66666666666666 51.66666666666666,206.66666666666666 51.66666666666666,243.33333333333334 14.999999999999996,243.33333333333334 14.999999999999996,206.66666666666666" height="30.388" />
	<poly id="building-0_0-1_2" type="building" fill="1" layer="-1.0" color="128,128,128" shape="14.999999999999996,248.3333333333333 51.66666666666666,248.3333333333333 51.66666666666666,284.99999999999994 14.999999999999996,284.99999999999994 14.999999999999996,248.3333333333333" height="15.383" />
	<poly id="building-0_1-1_0" type="building" fill="1" layer="-1.0" color="128,128,128" shape="56.66666666666667,165.0 93.33333333333333,165.0 93.33333333333333,201.66666666666669 56.66666666666667,201.66666666666669 56.66666666666667,165.0" height="15.236" />
	<poly id="building-0_1-1_1" type="building" fill="1" layer="-1.0" color="128,128,128" shape="56.66666666666667,206.66666666666666 93.33333333333333,206.66666666666666 93.33333333333333,243.33333333333334 56.66666666666667,243.33333333333334 56.66666666666667,206.66666666666666" height="44.892" />
	<poly id="building-0_1-1_2" type="building" fill="1" layer="-1.0" color="128,128,128" shape="56.66666666666667,248.3333333333333 93.33333333333333,248.3333333333333 93.33333333333333,284.99999999999994 56.66666666666667,284.99999999999994 56.66666666666667,248.3333333333333" height="45.429" />
	<poly id="building-0_2-1_0" type="building" fill="1" layer="-1.0" color="128,128,128" shape="98.33333333333333,165.0 135.0,165.0 135.0,201.66666666666669 98.33333333333333,201.66666666666669 98.33333333333333,165.0" height="11.685" />
	<poly id="building-0_2-1_1" type="building" fill="1" layer="-1.0" color="128,128,128" shape="98.33333333333333,206.66666666666666 135.0,206.66666666666666 135.0,243.33333333333334 98.33333333333333,243.33333333333334 98.33333333333333,206.66666666666666" height="36.634" />
	<poly id="building-0_2-1_2" type="building" fill="1" layer="-1.0" color="128,128,128" shape="98.33333333333333,248.3333333333333 135.0,248.3333333333333 135.0,284.99999999999994 98.33333333333333,284.99999999999994 98.33333333333333,248.3333333333333" height="42.670" />
	<poly id="building-0_0-2_0" type="building" fill="1" layer="-1.0" color="128,128,128" shape="14.999999999999996,315.0 51.66666666666666,315.0 51.66666666666666,351.66666666666663 14.999999999999996,351.66666666666663 14.999999999999996,315.0" height="37.430" />
	<poly id="building-0_0-2_1" type="building" fill="1" layer="-1.0" color="128,128,128" shape="14.999999999999996,356.6666666666667 51.66666666666666,356.6666666666667 51.66666666666666,393.3333333333333 14.999999999999996,393.3333333333333 14.999999999999996,356.6666666666667" height="31.806" />
	<poly id="building-0_0-2_2" type="building" fill="1" layer="-1.0" color="128,128,128" shape="14.999999999999996,398.3333333333333 51.66666666666666,398.3333333333333 51.66666666666666,434.99999999999994 14.999999999999996,434.99999999999994 14.999999999999996,398.3333333333333" height="36.800" />
	<poly id="building-0_1-2_0" type="building" fill="1" layer="-1.0" color="128,128,128" shape="56.66666666666667,315.0 93.33333333333333,315.0 93.33333333333333,351.66666666666663 56.66666666666667,351.66666666666663 56.66666666666667,315.0" height="36.546" />
	<poly id="building-0_1-2_1" type="building" fill="1" layer="-1.0" color="128,128,128" shape="56.66666666666667,356.6666666666667 93.33333333333333,356.6666666666667 93.33333333333333,393.3333333333333 56.66666666666667,393.3333333333333 56.66666666666667,356.6666666666667" height="38.638" />
	<poly id="building-0_1-2_2" type="building" fill="1" layer="-1.0" color="128,128,128" shape="56.66666666666667,398.3333333333333 93.33333333333333,398.3333333333333 93.33333333333333,434.99999999999994 56.66666666666667,434.99999999999994 56.66666666666667,398.3333333333333" height="12.206" />
	<poly id="building-0_2-2_0" type="building" fill="1" layer="-1.0" color="128,128,128" shape="98.33333333333333,315.0 135.0,315.0 135.0,351.66666666666663 98.33333333333333,351.66666666666663 98.33333333333333,315.0" height="32.984" />
	<poly id="building-0_2-2_1" type="building" fill="1" layer="-1.0" color="128,128,128" shape="98.33333333333333,356.6666666666667 135.0,356.6666666666667 135.0,393.3333333333333 98.33333333333333,393.3333333333333 98.33333333333333,356.6666666666667" height="32.523" />
	<poly id="building-0_2-2_2" type="building" fill="1" layer="-1.0" color="128,128,128" shape="98.33333333333333,398.3333333333333 135.0,398.3333333333333 135.0,434.99999999999994 98.33333333333333,434.99999999999994 98.33333333333333,398.3333333333333" height="19.376" />
	<poly id="building-0_0-3_0" type="building" fill="1" layer="-1.0" color="128,128,128" shape="14.999999999999996,465.0 51.66666666666666,465.0 51.66666666666666,501.66666666666663 14.999999999999996,501.66666666666663 14.999999999999996,465.0" height="22.646" />
	<poly id="building-0_0-3_1" type="building" fill="1" layer="-1.0" color="128,128,128" shape="14.999999999999996,506.6666666666667 51.66666666666666,506.6666666666667 51.66666666666666,543.3333333333334 14.999999999999996,543.3333333333334 14.999999999999996,506.6666666666667" height="22.104" />
	<poly id="building-0_0-3_2" type="building" fill="1" layer="-1.0" color="128,128,128" shape="14.999999999999996,548.3333333333334 51.66666666666666,548.3333333333334 51.66666666666666,585.0000000000001 14.999999999999996,585.0000000000001 14.999999999999996,548.3333333333334" height="31.261" />
	<poly id="building-0_1-3_0" type="building" fill="1" layer="-1.0" color="128,128,128" shape="56.66666666666667,465.0 93.33333333333333,465.0 93.33333333333333,501.66666666666663 56.66666666666667,501.66666666666663 56.66666666666667,465.0" height="12.542" />
	<poly id="building-0_1-3_1" type="building" fill="1" layer="-1.0" color="128,128,128" shape="56.66666666666667,506.6666666666667 93.33333333333333,506.6666666666667 93.33333333333333,543.3333333333334 56.66666666666667,543.3333333333334 56.66666666666667,506.6666666666667" height="23.225" />
	<poly id="building-0_1-3_2" type="building" fill="1" layer="-1.0" color="128,128,128" shape="56.66666666666667,548.3333333333334 93.33333333333333,548.3333333333334 93.33333333333333,585.0000000000001 56.66666666666667,585.0000000000001 56.66666666666667,548.3333333333334" height="32.032" />
	<poly id="building-0_2-3_0" type="building" fill="1" layer="-1.0" color="128,128,128" shape="98.33333333333333,465.0 135.0,465.0 135.0,501.66666666666663 98.33333333333333,501.66666666666663 98.33333333333333,465.0" height="35.474" />
	<poly id="building-0_2-3_1" type="building" fill="1" layer="-1.0" color="128,128,128" shape="98.33333333333333,506.6666666666667 135.0,506.6666666666667 135.0,543.3333333333334 98.33333333333333,543.3333333333334 98.33333333333333,506.6666666666667" height="42.513" />
	<poly id="building-0_2-3_2" type="building" fill="1" layer="-1.0" color="128,128,128" shape="98.33333333333333,548.3333333333334 135.0,548.3333333333334 135.0,585.0000000000001 98.33333333333333,585.0000000000001 98.33333333333333,548.3333333333334" height="14.942" />
	<poly id="building-0_0-4_0" type="building" fill="1" layer="-1.0" color="128,128,128" shape="14.999999999999996,615.0 51.66666666666666,615.0 51.66666666666666,651.6666666666667 14.999999999999996,651.6666666666667 14.999999999999996,615.0" height="10.737" />
	<poly id="building-0_0-4_1" type="building" fill="1" layer="-1.0" color="128,128,128" shape="14.999999999999996,656.6666666666666 51.66666666666666,656.6666666666666 51.66666666666666,693.3333333333334 14.999999999999996,693.3333333333334 14.999999999999996,656.6666666666666" height="37.236" />
	<poly id="building-0_0-4_2" type="building" fill="1" layer="-1.0" color="128,128,128" shape="14.999999999999996,698.3333333333334 51.66666666666666,698.3333333333334 51.66666666666666,735.0000000000001 14.999999999999996,735.0000000000001 14.999999999999996,698.3333333333334" height="13.294" />
	<poly id="building-0_1-4_0" type="building" fill="1" layer="-1.0" color="128,128,128" shape="56.66666666666667,615.0 93.33333333333333,615.0 93.33333333333333,651.6666666666667 56.66666666666667,651.6666666666667 56.66666666666667,615.0" height="49.294" />
	<poly id="building-0_1-4_1" type="building" fill="1" layer="-1.0" color="128,128,128" shape="56.66666666666667,656.6666666666666 93.33333333333333,656.6666666666666 93.33333333333333,693.3333333333334 56.66666666666667,693.3333333333334 56.66666666666667,656.6666666666666" height="45.073" />
	<poly id="building-0_1-4_2" type="building" fill="1" layer="-1.0" color="128,128,128" shape="56.66666666666667,698.3333333333334 93.33333333333333,698.3333333333334 93.33333333333333,735.0000000000001 56.66666666666667,735.0000000000001 56.66666666666667,698.3333333333334" height="48.879" />
	<poly id="building-0_2-4_0" type="building" fill="1" layer="-1.0" color="128,128,128" shape="98.33333333333333,615.0 135.0,615.0 135.0,651.6666666666667 98.33333333333333,651.6666666666667 98.33333333333333,615.0" height="12.836" />
	<poly id="building-0_2-4_1" type="building" fill="1" layer="-1.0" color="128,128,128" shape="98.33333333333333,656.6666666666666 135.0,656.6666666666666 135.0,693.3333333333334 98.33333333333333,693.3333333333334 98.33333333333333,656.6666666666666" height="26.586" />
	<poly id="building-0_2-4_2" type="building" fill="1" layer="-1.0" color="128,128,128" shape="98.33333333333333,698.3333333333334 135.0,698.3333333333334 135.0,735.0000000000001 98.33333333333333,735.0000000000001 98.33333333333333,698.3333333333334" height="45.817" />
	<poly id="building-0_0-5_0" type="building" fill="1" layer="-1.0" color="128,128,128" shape="14.999999999999996,765.0 51.66666666666666,765.0 51.66666666666666,801.6666666666667 14.999999999999996,801.6666666666667 14.999999999999996,765.0" height="49.039" />
	<poly id="building-0_0-5_1" type="building" fill="1" layer="-1.0" color="128,128,128" shape="14.999999999999996,806.6666666666666 51.66666666666666,806.6666666666666 51.66666666666666,843.3333333333334 14.999999999999996,843.3333333333334 14.999999999999996,806.6666666666666" height="37.084" />
	<poly id="building-0_0-5_2" type="building" fill="1" layer="-1.0" color="128,128,128" shape="14.999999999999996,848.3333333333334 51.66666666666666,848.3333333333334 51.66666666666666,885.0000000000001 14.999999999999996,885.0000000000001 14.999999999999996,848.3333333333334" height="41.087" />
	<poly id="building-0_1-5_0" type="building" fill="1" layer="-1.0" color="128,128,128" shape="56.66666666666667,765.0 93.33333333333333,765.0 93.33333333333333,801.6666666666667 56.66666666666667,801.6666666666667 56.66666666666667,765.0" height="41.044" />
	<poly id="building-0_1-5_1" type="building" fill="1" layer="-1.0" color="128,128,128" shape="56.66666666666667,806.6666666666666 93.33333333333333,806.6666666666666 93.33333333333333,843.3333333333334 56.66666666666667,843.3333333333334 56.66666666666667,806.6666666666666" height="43.596" />
	<poly id="building-0_1-5_2" type="building" fill="1" layer="-1.0" color="128,128,128" shape="56.66666666666667,848.3333333333334 93.33333333333333,848.3333333333334 93.33333333333333,885.0000000000001 56.66666666666667,885.0000000000001 56.66666666666667,848.3333333333334" height="35.165" />
	<poly id="building-0_2-5_0" type="building" fill="1" layer="-1.0" color="128,128,128" shape="98.33333333333333,765.0 135.0,765.0 135.0,801.6666666666667 98.33333333333333,801.6666666666667 98.33333333333333,765.0" height="46.411" />
	<poly id="building-0_2-5_1" type="building" fill="1" layer="-1.0" color="128,128,128" shape="98.33333333333333,806.6666666666666 135.0,806.6666666666666 135.0,843.3333333333334 98.33333333333333,843.3333333333334 98.33333333333333,806.6666666666666" height="23.064" />
	<poly id="building-0_2-5_2" type="building" fill="1" layer="-1.0" color="128,128,128" shape="98.33333333333333,848.3333333333334 135.0,848.3333333333334 135.0,885.0000000000001 98.33333333333333,885.0000000000001 98.33333333333333,848.3333333333334" height="39.110" />
	<poly id="building-0_0-6_0" type="building" fill="1" layer="-1.0" color="128,128,128" shape="14.999999999999996,915.0 51.66666666666666,915.0 51.66666666666666,951.6666666666667 14.999999999999996,951.6666666666667 14.999999999999996,915.0" height="32.005" />
	<poly id="building-0_0-6_1" type="building" fill="1" layer="-1.0" color="128,128,128" shape="14.999999999999996,956.6666666666666 51.66666666666666,956.6666666666666 51.66666666666666,993.3333333333334 14.999999999999996,993.3333333333334 14.999999999999996,956.6666666666666" height="45.569" />
	<poly id="building-0_0-6_2" type="building" fill="1" layer="-1.0" color="128,128,128" shape="14.999999999999996,998.3333333333334 51.66666666666666,998.3333333333334 51.66666666666666,1035.0 14.999999999999996,1035.0 14.999999999999996,998.3333333333334" height="41.321" />
	<poly id="building-0_1-6_0" type="building" fill="1" layer="-1.0" color="128,128,128" shape="56.66666666666667,915.0 93.33333333333333,915.0 93.33333333333333,951.6666666666667 56.66666666666667,951.6666666666667 56.66666666666667,915.0" height="21.828" />
	<poly id="building-0_1-6_1" type="building" fill="1" layer="-1.0" color="128,128,128" shape="56.66666666666667,956.6666666666666 93.33333333333333,956.6666666666666 93.33333333333333,993.3333333333334 56.66666666666667,993.3333333333334 56.66666666666667,956.6666666666666" height="22.434" />
	<poly id="building-0_1-6_2" type="building" fill="1" layer="-1.0" color="128,128,128" shape="56.66666666666667,998.3333333333334 93.33333333333333,998.3333333333334 93.33333333333333,1035.0 56.66666666666667,1035.0 56.66666666666667,998.3333333333334" height="16.691" />
	<poly id="building-0_2-6_0" type="building" fill="1" layer="-1.0" color="128,128,128" shape="98.33333333333333,915.0 135.0,915.0 135.0,951.6666666666667 98.33333333333333,951.6666666666667 98.33333333333333,915.0" height="36.710" />
	<poly id="building-0_2-6_1" type="building" fill="1" layer="-1.0" color="128,128,128" shape="98.33333333333333,956.6666666666666 135.0,956.6666666666666 135.0,993.3333333333334 98.33333333333333,993.3333333333334 98.33333333333333,956.6666666666666" height="39.148" />
	<poly id="building-0_2-6_2" type="building" fill="1" layer="-1.0" color="128,128,128" shape="98.33333333333333,998.3333333333334 135.0,998.3333333333334 135.0,1035.0 98.33333333333333,1035.0 98.33333333333333,998.3333333333334" height="10.223" />
	<poly id="building-0_0-7_0" type="building" fill="1" layer="-1.0" color="128,128,128" shape="14.999999999999996,1065.0 51.66666666666666,1065.0 51.66666666666666,1101.6666666666665 14.999999999999996,1101.6666666666665 14.999999999999996,1065.0" height="39.546" />
	<poly id="building-0_0-7_1" type="building" fill="1" layer="-1.0" color="128,128,128" shape="14.999999999999996,1106.6666666666667 51.66666666666666,1106.6666666666667 51.66666666666666,1143.3333333333333 14.999999999999996,1143.3333333333333 14.999999999999996,1106.6666666666667" height="26.430" />
	<poly id="building-0_0-7_2" type="building" fill="1" layer="-1.0" color="128,128,128" shape="14.999999999999996,1148.3333333333333 51.66666666666666,1148.3333333333333 51.66666666666666,1184.9999999999998 14.999999999999996,1184.9999999999998 14.999999999999996,1148.3333333333333" height="15.517" />
	<poly id="building-0_1-7_0" type="building" fill="1" layer="-1.0" color="128,128,128" shape="56.66666666666667,1065.0 93.33333333333333,1065.0 93.33333333333333,1101.6666666666665 56.66666666666667,1101.6666666666665 56.66666666666667,1065.0" height="36.609" />
	<poly id="building-0_1-7_1" type="building" fill="1" layer="-1.0" color="128,128,128" shape="56.66666666666667,1106.6666666666667 93.33333333333333,1106.6666666666667 93.33333333333333,1143.3333333333333 56.66666666666667,1143.3333333333333 56.66666666666667,1106.6666666666667" height="22.414" />
	<poly id="building-0_1-7_2" type="building" fill="1" layer="-1.0" color="128,128,128" shape="56.66666666666667,1148.3333333333333 93.33333333333333,1148.3333333333333 93.33333333333333,1184.9999999999998 56.66666666666667,1184.9999999999998 56.66666666666667,1148.3333333333333" height="27.624" />
	<poly id="building-0_2-7_0" type="building" fill="1" layer="-1.0" color="128,128,128" shape="98.33333333333333,1065.0 135.0,1065.0 135.0,1101.6666666666665 98.33333333333333,1101.6666666666665 98.33333333333333,1065.0" height="44.281" />
	<poly id="building-0_2-7_1" type="building" fill="1" layer="-1.0" color="128,128,128" shape="98.33333333333333,1106.6666666666667 135.0,1106.6666666666667 135.0,1143.3333333333333 98.33333333333333,1143.3333333333333 98.33333333333333,1106.6666666666667" height="16.928" />
	<poly id="building-0_2-7_2" type="building" fill="1" layer="-1.0" color="128,128,128" shape="98.33333333333333,1148.3333333333333 135.0,1148.3333333333333 135.0,1184.9999999999998 98.33333333333333,1184.9999999999998 98.33333333333333,1148.3333333333333" height="36.895" />
	<poly id="building-0_0-8_0" type="building" fill="1" layer="-1.0" color="128,128,128" shape="14.999999999999996,1215.0 51.66666666666666,1215.0 51.66666666666666,1251.6666666666665 14.999999999999996,1251.6666666666665 14.999999999999996,1215.0" height="48.632" />
	<poly id="building-0_0-8_1" type="building" fill="1" layer="-1.0" color="128,128,128" shape="14.999999999999996,1256.6666666666667 51.66666666666666,1256.6666666666667 51.66666666666666,1293.3333333333333 14.999999999999996,1293.3333333333333 14.999999999999996,1256.6666666666667" height="18.062" />
	<poly id="building-0_0-8_2" type="building" fill="1" layer="-1.0" color="128,128,128" shape="14.999999999999996,1298.3333333333333 51.66666666666666,1298.3333333333333 51.66666666666666,1334.9999999999998 14.999999999999996,1334.9999999999998 14.999999999999996,1298.3333333333333" height="30.822" />
	<poly id="building-0_1-8_0" type="building" fill="1" layer="-1.0" color="128,128,128" shape="56.66666666666667,1215.0 93.33333333333333,1215.0 93.33333333333333,1251.6666666666665 56.66666666666667,1251.6666666666665 56.66666666666667,1215.0" height="36.959" />
	<poly id="building-0_1-8_1" type="building" fill="1" layer="-1.0" color="128,128,128" shape="56.66666666666667,1256.6666666666667 93.33333333333333,1256.6666666666667 93.33333333333333,1293.3333333333333 56.66666666666667,1293.3333333333333 56.66666666666667,1256.6666666666667" height="29.638" />
	<poly id="building-0_1-8_2" type="building" fill="1" layer="-1.0" color="128,128,128" shape="56.66666666666667,1298.3333333333333 93.33333333333333,1298.3333333333333 93.33333333333333,1334.9999999999998 56.66666666666667,1334.9999999999998 56.66666666666667,1298.3333333333333" height="28.003" />
	<poly id="building-0_2-8_0" type="building" fill="1" layer="-1.0" color="128,128,128" shape="98.33333333333333,1215.0 135.0,1215.0 135.0,1251.6666666666665 98.33333333333333,1251.6666666666665 98.33333333333333,1215.0" height="28.288" />
	<poly id="building-0_2-8_1" type="building" fill="1" layer="-1.0" color="128,128,128" shape="98.33333333333333,1256.6666666666667 135.0,1256.6666666666667 135.0,1293.3333333333333 98.33333333333333,1293.3333333333333 98.33333333333333,1256.6666666666667" height="30.472" />
	<poly id="building-0_2-8_2" type="building" fill="1" layer="-1.0" color="128,128,128" shape="98.33333333333333,1298.3333333333333 135.0,1298.3333333333333 135.0,1334.9999999999998 98.33333333333333,1334.9999999999998 98.33333333333333,1298.3333333333333" height="10.791" />
	<poly id="building-0_0-9_0" type="building" fill="1" layer="-1.0" color="128,128,128" shape="14.999999999999996,1365.0 51.66666666666666,1365.0 51.66666666666666,1401.6666666666665 14.999999999999996,1401.6666666666665 14.999999999999996,1365.0" height="32.607" />
	<poly id="building-0_0-9_1" type="building" fill="1" layer="-1.0" color="128,128,128" shape="14.999999999999996,1406.6666666666667 51.66666666666666,1406.6666666666667 51.66666666666666,1443.3333333333333 14.999999999999996,1443.3333333333333 14.999999999999996,1406.6666666666667" height="28.182" />
	<poly id="building-0_0-9_2" type="building" fill="1" layer="-1.0" color="128,128,128" shape="14.999999999999996,1448.3333333333333 51.66666666666666,1448.3333333333333 51.66666666666666,1484.9999999999998 14.999999999999996,1484.9999999999998 14.999999999999996,1448.3333333333333" height="46.673" />
	<poly id="building-0_1-9_0" type="building" fill="1" layer="-1.0" color="128,128,128" shape="56.66666666666667,1365.0 93.33333333333333,1365.0 93.33333333333333,1401.6666666666665 56.66666666666667,1401.6666666666665 56.66666666666667,1365.0" height="39.046" />
	<poly id="building-0_1-9_1" type="building" fill="1" layer="-1.0" color="128,128,128" shape="56.66666666666667,1406.6666666666667 93.33333333333333,1406.6666666666667 93.33333333333333,1443.3333333333333 56.66666666666667,1443.3333333333333 56.66666666666667,1406.6666666666667" height="36.844" />
	<poly id="building-0_1-9_2" type="building" fill="1" layer="-1.0" color="128,128,128" shape="56.66666666666667,1448.3333333333333 93.33333333333333,1448.3333333333333 93.33333333333333,1484.9999999999998 56.66666666666667,1484.9999999999998 56.66666666666667,1448.3333333333333" height="25.583" />
	<poly id="building-0_2-9_0" type="building" fill="1" layer="-1.0" color="128,128,128" shape="98.33333333333333,1365.0 135.0,1365.0 135.0,1401.6666666666665 98.33333333333333,1401.6666666666665 98.33333333333333,1365.0" height="20.052" />
	<poly id="building-0_2-9_1" type="building" fill="1" layer="-1.0" color="128,128,128" shape="98.33333333333333,1406.6666666666667 135.0,1406.6666666666667 135.0,1443.3333333333333 98.33333333333333,1443.3333333333333 98.33333333333333,1406.6666666666667" height="20.550" />
	<poly id="building-0_2-9_2" type="building" fill="1" layer="-1.0" color="128,128,128" shape="98.33333333333333,1448.3333333333333 135.0,1448.3333333333333 135.0,1484.9999999999998 98.33333333333333,1484.9999999999998 98.33333333333333,1448.3333333333333" height="35.128" />
	<poly id="building-0_0-10_0" type="building" fill="1" layer="-1.0" color="128,128,128" shape="14.999999999999996,1515.0 51.66666666666666,1515.0 51.66666666666666,1551.6666666666665 14.999999999999996,1551.6666666666665 14.999999999999996,1515.0" height="27.173" />
	<poly id="building-0_0-10_1" type="building" fill="1" layer="-1.0" color="128,128,128" shape="14.999999999999996,1556.6666666666667 51.66666666666666,1556.6666666666667 51.66666666666666,1593.3333333333333 14.999999999999996,1593.3333333333333 14.999999999999996,1556.6666666666667" height="11.041" />
	<poly id="building-0_0-10_2" type="building" fill="1" layer="-1.0" color="128,128,128" shape="14.999999999999996,1598.3333333333333 51.66666666666666,1598.3333333333333 51.66666666666666,1634.9999999999998 14.999999999999996,1634.9999999999998 14.999999999999996,1598.3333333333333" height="13.229" />
	<poly id="building-0_1-10_0" type="building" fill="1" layer="-1.0" color="128,128,128" shape="56.66666666666667,1515.0 93.33333333333333,1515.0 93.33333333333333,1551.6666666666665 56.66666666666667,1551.6666666666665 56.66666666666667,1515.0" height="14.241" />
	<poly id="building-0_1-10_1" type="building" fill="1" layer="-1.0" color="128,128,128" shape="56.66666666666667,1556.6666666666667 93.33333333333333,1556.6666666666667 93.33333333333333,1593.3333333333333 56.66666666666667,1593.3333333333333 56.66666666666667,1556.6666666666667" height="30.869" />
	<poly id="building-0_1-10_2" type="building" fill="1" layer="-1.0" color="128,128,128" shape="56.66666666666667,1598.3333333333333 93.33333333333333,1598.3333333333333 93.33333333333333,1634.9999999999998 56.66666666666667,1634.9999999999998 56.66666666666667,1598.3333333333333" height="16.116" />
	<poly id="building-0_2-10_0" type="building" fill="1" layer="-1.0" color="128,128,128" shape="98.33333333333333,1515.0 135.0,1515.0 135.0,1551.6666666666665 98.33333333333333,1551.6666666666665 98.33333333333333,1515.0" height="10.023" />
	<poly id="building-0_2-10_1" type="building" fill="1" layer="-1.0" color="128,128,128" shape="98.33333333333333,1556.6666666666667 135.0,1556.6666666666667 135.0,1593.3333333333333 98.33333333333333,1593.3333333333333 98.33333333333333,1556.6666666666667" height="31.081" />
	<poly id="building-0_2-10_2" type="building" fill="1" layer="-1.0" color="128,128,128" shape="98.33333333333333,1598.3333333333333 135.0,1598.3333333333333 135.0,1634.9999999999998 98.33333333333333,1634.9999999999998 98.33333333333333,1598.3333333333333" height="16.307" />
	<poly id="building-0_0-11_0" type="building" fill="1" layer="-1.0" color="128,128,128" shape="14.999999999999996,1665.0 51.66666666666666,1665.0 51.66666666666666,1701.6666666666665 14.999999999999996,1701.6666666666665 14.999999999999996,1665.0" height="32.779" />
	<poly id="building-0_0-11_1" type="building" fill="1" layer="-1.0" color="128,128,128" shape="14.999999999999996,1706.6666666666667 51.66666666666666,1706.6666666666667 51.66666666666666,1743.3333333333333 14.999999999999996,1743.3333333333333 14.999999999999996,1706.6666666666667" height="20.021" />
	<poly id="building-0_0-11_2" type="building" fill="1" layer="-1.0" color="128,128,128" shape="14.999999999999996,1748.3333333333333 51.66666666666666,1748.3333333333333 51.66666666666666,1784.9999999999998 14.999999999999996,1784.9999999999998 14.999999999999996,1748.3333333333333" height="45.098" />
	<poly id="building-0_1-11_0" type="building" fill="1" layer="-1.0" color="128,128,128" shape="56.66666666666667,1665.0 93.33333333333333,1665.0 93.33333333333333,1701.6666666666665 56.66666666666667,1701.6666666666665 56.66666666666667,1665.0" height="11.050" />
	<poly id="building-0_1-11_1" type="building" fill="1" layer="-1.0" color="128,128,128" shape="56.66666666666667,1706.6666666666667 93.33333333333333,1706.6666666666667 93.33333333333333,1743.3333333333333 56.66666666666667,1743.3333333333333 56.66666666666667,1706.6666666666667" height="31.942" />
	<poly id="building-0_1-11_2" type="building" fill="1" layer="-1.0" color="128,128,128" shape="56.66666666666667,1748.3333333333333 93.33333333333333,1748.3333333333333 93.33333333333333,1784.9999999999998 56.66666666666667,1784.9999999999998 56.66666666666667,1748.3333333333333" height="28.973" />
	<poly id="building-0_2-11_0" type="building" fill="1" layer="-1.0" color="128,128,128" shape="98.33333333333333,1665.0 135.0,1665.0 135.0,1701.6666666666665 98.33333333333333,1701.6666666666665 98.33333333333333,1665.0" height="34.130" />
	<poly id="building-0_2-11_1" type="building" fill="1" layer="-1.0" color="128,128,128" shape="98.33333333333333,1706.6666666666667 135.0,1706.6666666666667 135.0,1743.3333333333333 98.33333333333333,1743.3333333333333 98.33333333333333,1706.6666666666667" height="26.837" />