<?xml version="1.0" encoding="UTF-8"?>
<!-- generated on 2023-04-15 19:40:57.671888 by $Id$ v1_8_0+0044-4820708f3d
  options: -n drones.net.xml -b 0 -e 3 -p 1 <doubleminus>random -i 64 -o drones.trips.xml
-->
<routes>
    <trip id="0" depart="0.00" from="G3H3" to="I4I3" via="O1O0 D7C7 N5N4 I11I10 H5H6 J8J9 E9E8 E3E2 C11C10 A3A4 O5O4 N7M7 C11D11 M12L12 E0E1 A7A8 D12D11 E7F7 L6M6 F2E2 D8D7 I10J10 K11L11 O8N8 A6B6 A8A7 G12H12 E10E11 D3D2 F3F4 L14K14 M9M8 K1K0 M3M4 I0H0 C1D1 J2J3 B6A6 L11M11 N11M11 I3I4 N1N0 I8J8 M1M0 K9K8 N5M5 G7G6 L7K7 M7L7 H7G7 B11B12 C3B3 I4I5 L3L4 K4L4 M2M3 C5B5 L11L10 N7M7 N1O1 H9G9 N12O12 D6D7 M2M3" />
    <trip id="1" depart="1.00" from="G13G14" to="N2N3" via="B7C7 O3O4 F1G1 F5E5 A7A8 G4F4 O3O4 D5E5 I1I0 A5B5 M1M2 A6A7 E6E5 L2L3 I13I14 D14D13 N1M1 H2H3 I2I3 G6G7 O2N2 N13N12 H7G7 C11C12 D13E13 D10D9 C3C4 E14E13 H2I2 F4E4 M13M14 C8B8 O7O6 C5C4 I4I5 J6I6 C10C9 J7J8 G0F0 A14A13 I11I12 O4O3 O3N3 B1B0 G5G4 N12N11 B8A8 G12G13 O2N2 K6K7 J10K10 D9E9 G11F11 F10E10 C9C8 O8O7 B10B9 G13F13 H3G3 M11M12 K2J2 F12G12 H4I4 L13M13" />
    <trip id="2" depart="2.00" from="K6L6" to="O14O13" via="M7N7 B7B6 G9G8 C3D3 L8L9 E1E2 F5E5 H9H10 A13B13 F3F2 I5I6 K9J9 A7A6 A6A7 A9B9 A8A7 C13C12 B5C5 D9E9 F8F7 N10N9 F12G12 O12O13 C5D5 B9C9 C1C2 N12O12 E6D6 A8A9 O11O12 I11J11 J1J2 L9M9 I5I6 E0F0 J10J9 I5H5 C1B1 E6E5 M9M8 H8G8 G4F4 N5O5 D4C4 K1J1 G8G7 C0B0 H9G9 D11D10 A14A13 M14L14 G7H7 L4M4 D0D1 F0G0 A13A12 C14B14 I6I7 J11I11 F3E3 K1K0 G5H5 F9G9 D5C5" />
</routes>
