<?xml version="1.0" encoding="UTF-8"?>

<!-- generated on Sat Apr 15 20:18:30 2023 by Eclipse SUMO netgenerate Version 1.8.0
<configuration xmlns:xsi="http://www.w3.org/2001/XMLSchema-instance" xsi:noNamespaceSchemaLocation="http://sumo.dlr.de/xsd/netgenerateConfiguration.xsd">

    <grid_network>
        <grid value="true"/>
        <grid.number value="15"/>
        <grid.length value="150"/>
    </grid_network>

    <output>
        <output-file value="drones.net.xml"/>
    </output>

    <building_defaults>
        <default.lanenumber value="1"/>
    </building_defaults>

</configuration>
-->

<net version="1.6" junctionCornerDetail="5" limitTurnSpeed="5.50" xmlns:xsi="http://www.w3.org/2001/XMLSchema-instance" xsi:noNamespaceSchemaLocation="http://sumo.dlr.de/xsd/net_file.xsd">

    <location netOffset="0.00,0.00" convBoundary="0.00,0.00,2100.00,2100.00" origBoundary="0.00,0.00,2100.00,2100.00" projParameter="!"/>

    <edge id=":A0_0" function="internal">
        <lane id=":A0_0_0" index="0" speed="6.08" length="7.74" shape="-1.60,3.20 -1.30,1.10 -0.40,-0.40 1.10,-1.30 3.20,-1.60"/>
    </edge>
    <edge id=":A0_1" function="internal">
        <lane id=":A0_1_0" index="0" speed="3.90" length="2.58" shape="3.20,1.60 2.50,1.70 2.00,2.00 1.70,2.50 1.60,3.20"/>
    </edge>
    <edge id=":A1_0" function="internal">
        <lane id=":A1_0_0" index="0" speed="13.89" length="14.40" shape="-1.60,157.20 -1.60,142.80"/>
    </edge>
    <edge id=":A1_1" function="internal">
        <lane id=":A1_1_0" index="0" speed="8.00" length="5.93" shape="-1.60,157.20 -1.05,153.35 0.00,151.60"/>
    </edge>
    <edge id=":A1_2" function="internal">
        <lane id=":A1_2_0" index="0" speed="3.65" length="2.34" shape="-1.60,157.20 -0.80,156.00 0.00,155.60"/>
    </edge>
    <edge id=":A1_9" function="internal">
        <lane id=":A1_9_0" index="0" speed="8.00" length="8.26" shape="0.00,151.60 0.60,150.60 3.35,148.95 7.20,148.40"/>
    </edge>
    <edge id=":A1_10" function="internal">
        <lane id=":A1_10_0" index="0" speed="3.65" length="2.34" shape="0.00,155.60 0.80,156.00 1.60,157.20"/>
    </edge>
    <edge id=":A1_3" function="internal">
        <lane id=":A1_3_0" index="0" speed="6.51" length="9.03" shape="7.20,151.60 4.75,151.95 3.00,153.00 1.95,154.75 1.60,157.20"/>
    </edge>
    <edge id=":A1_4" function="internal">
        <lane id=":A1_4_0" index="0" speed="8.00" length="14.19" shape="7.20,151.60 3.35,151.05 0.60,149.40 -1.05,146.65 -1.60,142.80"/>
    </edge>
    <edge id=":A1_5" function="internal">
        <lane id=":A1_5_0" index="0" speed="3.65" length="4.67" shape="7.20,151.60 6.00,150.80 5.60,150.00 6.00,149.20 7.20,148.40"/>
    </edge>
    <edge id=":A1_6" function="internal">
        <lane id=":A1_6_0" index="0" speed="6.51" length="9.03" shape="1.60,142.80 1.95,145.25 3.00,147.00 4.75,148.05 7.20,148.40"/>
    </edge>
    <edge id=":A1_7" function="internal">
        <lane id=":A1_7_0" index="0" speed="13.89" length="14.40" shape="1.60,142.80 1.60,157.20"/>
    </edge>
    <edge id=":A1_8" function="internal">
        <lane id=":A1_8_0" index="0" speed="3.65" length="2.34" shape="1.60,142.80 0.80,144.00 0.00,144.40"/>
    </edge>
    <edge id=":A1_11" function="internal">
        <lane id=":A1_11_0" index="0" speed="3.65" length="2.34" shape="0.00,144.40 -0.80,144.00 -1.60,142.80"/>
    </edge>
    <edge id=":A10_0" function="internal">
        <lane id=":A10_0_0" index="0" speed="13.89" length="14.40" shape="-1.60,1507.20 -1.60,1492.80"/>
    </edge>
    <edge id=":A10_1" function="internal">
        <lane id=":A10_1_0" index="0" speed="8.00" length="5.93" shape="-1.60,1507.20 -1.05,1503.35 0.00,1501.60"/>
    </edge>
    <edge id=":A10_2" function="internal">
        <lane id=":A10_2_0" index="0" speed="3.65" length="2.34" shape="-1.60,1507.20 -0.80,1506.00 0.00,1505.60"/>
    </edge>
    <edge id=":A10_9" function="internal">
        <lane id=":A10_9_0" index="0" speed="8.00" length="8.26" shape="0.00,1501.60 0.60,1500.60 3.35,1498.95 7.20,1498.40"/>
    </edge>
    <edge id=":A10_10" function="internal">
        <lane id=":A10_10_0" index="0" speed="3.65" length="2.34" shape="0.00,1505.60 0.80,1506.00 1.60,1507.20"/>
    </edge>
    <edge id=":A10_3" function="internal">
        <lane id=":A10_3_0" index="0" speed="6.51" length="9.03" shape="7.20,1501.60 4.75,1501.95 3.00,1503.00 1.95,1504.75 1.60,1507.20"/>
    </edge>
    <edge id=":A10_4" function="internal">
        <lane id=":A10_4_0" index="0" speed="8.00" length="14.19" shape="7.20,1501.60 3.35,1501.05 0.60,1499.40 -1.05,1496.65 -1.60,1492.80"/>
    </edge>
    <edge id=":A10_5" function="internal">
        <lane id=":A10_5_0" index="0" speed="3.65" length="4.67" shape="7.20,1501.60 6.00,1500.80 5.60,1500.00 6.00,1499.20 7.20,1498.40"/>
    </edge>
    <edge id=":A10_6" function="internal">
        <lane id=":A10_6_0" index="0" speed="6.51" length="9.03" shape="1.60,1492.80 1.95,1495.25 3.00,1497.00 4.75,1498.05 7.20,1498.40"/>
    </edge>
    <edge id=":A10_7" function="internal">
        <lane id=":A10_7_0" index="0" speed="13.89" length="14.40" shape="1.60,1492.80 1.60,1507.20"/>
    </edge>
    <edge id=":A10_8" function="internal">
        <lane id=":A10_8_0" index="0" speed="3.65" length="2.34" shape="1.60,1492.80 0.80,1494.00 0.00,1494.40"/>
    </edge>
    <edge id=":A10_11" function="internal">
        <lane id=":A10_11_0" index="0" speed="3.65" length="2.34" shape="0.00,1494.40 -0.80,1494.00 -1.60,1492.80"/>
    </edge>
    <edge id=":A11_0" function="internal">
        <lane id=":A11_0_0" index="0" speed="13.89" length="14.40" shape="-1.60,1657.20 -1.60,1642.80"/>
    </edge>
    <edge id=":A11_1" function="internal">
        <lane id=":A11_1_0" index="0" speed="8.00" length="5.93" shape="-1.60,1657.20 -1.05,1653.35 0.00,1651.60"/>
    </edge>
    <edge id=":A11_2" function="internal">
        <lane id=":A11_2_0" index="0" speed="3.65" length="2.34" shape="-1.60,1657.20 -0.80,1656.00 0.00,1655.60"/>
    </edge>
    <edge id=":A11_9" function="internal">
        <lane id=":A11_9_0" index="0" speed="8.00" length="8.26" shape="0.00,1651.60 0.60,1650.60 3.35,1648.95 7.20,1648.40"/>
    </edge>
    <edge id=":A11_10" function="internal">
        <lane id=":A11_10_0" index="0" speed="3.65" length="2.34" shape="0.00,1655.60 0.80,1656.00 1.60,1657.20"/>
    </edge>
    <edge id=":A11_3" function="internal">
        <lane id=":A11_3_0" index="0" speed="6.51" length="9.03" shape="7.20,1651.60 4.75,1651.95 3.00,1653.00 1.95,1654.75 1.60,1657.20"/>
    </edge>
    <edge id=":A11_4" function="internal">
        <lane id=":A11_4_0" index="0" speed="8.00" length="14.19" shape="7.20,1651.60 3.35,1651.05 0.60,1649.40 -1.05,1646.65 -1.60,1642.80"/>
    </edge>
    <edge id=":A11_5" function="internal">
        <lane id=":A11_5_0" index="0" speed="3.65" length="4.67" shape="7.20,1651.60 6.00,1650.80 5.60,1650.00 6.00,1649.20 7.20,1648.40"/>
    </edge>
    <edge id=":A11_6" function="internal">
        <lane id=":A11_6_0" index="0" speed="6.51" length="9.03" shape="1.60,1642.80 1.95,1645.25 3.00,1647.00 4.75,1648.05 7.20,1648.40"/>
    </edge>
    <edge id=":A11_7" function="internal">
        <lane id=":A11_7_0" index="0" speed="13.89" length="14.40" shape="1.60,1642.80 1.60,1657.20"/>
    </edge>
    <edge id=":A11_8" function="internal">
        <lane id=":A11_8_0" index="0" speed="3.65" length="2.34" shape="1.60,1642.80 0.80,1644.00 0.00,1644.40"/>
    </edge>
    <edge id=":A11_11" function="internal">
        <lane id=":A11_11_0" index="0" speed="3.65" length="2.34" shape="0.00,1644.40 -0.80,1644.00 -1.60,1642.80"/>
    </edge>
    <edge id=":A12_0" function="internal">
        <lane id=":A12_0_0" index="0" speed="13.89" length="14.40" shape="-1.60,1807.20 -1.60,1792.80"/>
    </edge>
    <edge id=":A12_1" function="internal">
        <lane id=":A12_1_0" index="0" speed="8.00" length="5.93" shape="-1.60,1807.20 -1.05,1803.35 0.00,1801.60"/>
    </edge>
    <edge id=":A12_2" function="internal">
        <lane id=":A12_2_0" index="0" speed="3.65" length="2.34" shape="-1.60,1807.20 -0.80,1806.00 0.00,1805.60"/>
    </edge>
    <edge id=":A12_9" function="internal">
        <lane id=":A12_9_0" index="0" speed="8.00" length="8.26" shape="0.00,1801.60 0.60,1800.60 3.35,1798.95 7.20,1798.40"/>
    </edge>
    <edge id=":A12_10" function="internal">
        <lane id=":A12_10_0" index="0" speed="3.65" length="2.34" shape="0.00,1805.60 0.80,1806.00 1.60,1807.20"/>
    </edge>
    <edge id=":A12_3" function="internal">
        <lane id=":A12_3_0" index="0" speed="6.51" length="9.03" shape="7.20,1801.60 4.75,1801.95 3.00,1803.00 1.95,1804.75 1.60,1807.20"/>
    </edge>
    <edge id=":A12_4" function="internal">
        <lane id=":A12_4_0" index="0" speed="8.00" length="14.19" shape="7.20,1801.60 3.35,1801.05 0.60,1799.40 -1.05,1796.65 -1.60,1792.80"/>
    </edge>
    <edge id=":A12_5" function="internal">
        <lane id=":A12_5_0" index="0" speed="3.65" length="4.67" shape="7.20,1801.60 6.00,1800.80 5.60,1800.00 6.00,1799.20 7.20,1798.40"/>
    </edge>
    <edge id=":A12_6" function="internal">
        <lane id=":A12_6_0" index="0" speed="6.51" length="9.03" shape="1.60,1792.80 1.95,1795.25 3.00,1797.00 4.75,1798.05 7.20,1798.40"/>
    </edge>
    <edge id=":A12_7" function="internal">
        <lane id=":A12_7_0" index="0" speed="13.89" length="14.40" shape="1.60,1792.80 1.60,1807.20"/>
    </edge>
    <edge id=":A12_8" function="internal">
        <lane id=":A12_8_0" index="0" speed="3.65" length="2.34" shape="1.60,1792.80 0.80,1794.00 0.00,1794.40"/>
    </edge>
    <edge id=":A12_11" function="internal">
        <lane id=":A12_11_0" index="0" speed="3.65" length="2.34" shape="0.00,1794.40 -0.80,1794.00 -1.60,1792.80"/>
    </edge>
    <edge id=":A13_0" function="internal">
        <lane id=":A13_0_0" index="0" speed="13.89" length="14.40" shape="-1.60,1957.20 -1.60,1942.80"/>
    </edge>
    <edge id=":A13_1" function="internal">
        <lane id=":A13_1_0" index="0" speed="8.00" length="5.93" shape="-1.60,1957.20 -1.05,1953.35 0.00,1951.60"/>
    </edge>
    <edge id=":A13_2" function="internal">
        <lane id=":A13_2_0" index="0" speed="3.65" length="2.34" shape="-1.60,1957.20 -0.80,1956.00 0.00,1955.60"/>
    </edge>
    <edge id=":A13_9" function="internal">
        <lane id=":A13_9_0" index="0" speed="8.00" length="8.26" shape="0.00,1951.60 0.60,1950.60 3.35,1948.95 7.20,1948.40"/>
    </edge>
    <edge id=":A13_10" function="internal">
        <lane id=":A13_10_0" index="0" speed="3.65" length="2.34" shape="0.00,1955.60 0.80,1956.00 1.60,1957.20"/>
    </edge>
    <edge id=":A13_3" function="internal">
        <lane id=":A13_3_0" index="0" speed="6.51" length="9.03" shape="7.20,1951.60 4.75,1951.95 3.00,1953.00 1.95,1954.75 1.60,1957.20"/>
    </edge>
    <edge id=":A13_4" function="internal">
        <lane id=":A13_4_0" index="0" speed="8.00" length="14.19" shape="7.20,1951.60 3.35,1951.05 0.60,1949.40 -1.05,1946.65 -1.60,1942.80"/>
    </edge>
    <edge id=":A13_5" function="internal">
        <lane id=":A13_5_0" index="0" speed="3.65" length="4.67" shape="7.20,1951.60 6.00,1950.80 5.60,1950.00 6.00,1949.20 7.20,1948.40"/>
    </edge>
    <edge id=":A13_6" function="internal">
        <lane id=":A13_6_0" index="0" speed="6.51" length="9.03" shape="1.60,1942.80 1.95,1945.25 3.00,1947.00 4.75,1948.05 7.20,1948.40"/>
    </edge>
    <edge id=":A13_7" function="internal">
        <lane id=":A13_7_0" index="0" speed="13.89" length="14.40" shape="1.60,1942.80 1.60,1957.20"/>
    </edge>
    <edge id=":A13_8" function="internal">
        <lane id=":A13_8_0" index="0" speed="3.65" length="2.34" shape="1.60,1942.80 0.80,1944.00 0.00,1944.40"/>
    </edge>
    <edge id=":A13_11" function="internal">
        <lane id=":A13_11_0" index="0" speed="3.65" length="2.34" shape="0.00,1944.40 -0.80,1944.00 -1.60,1942.80"/>
    </edge>
    <edge id=":A14_0" function="internal">
        <lane id=":A14_0_0" index="0" speed="6.08" length="7.74" shape="3.20,2101.60 1.10,2101.30 -0.40,2100.40 -1.30,2098.90 -1.60,2096.80"/>
    </edge>
    <edge id=":A14_1" function="internal">
        <lane id=":A14_1_0" index="0" speed="3.90" length="2.58" shape="1.60,2096.80 1.70,2097.50 2.00,2098.00 2.50,2098.30 3.20,2098.40"/>
    </edge>
    <edge id=":A2_0" function="internal">
        <lane id=":A2_0_0" index="0" speed="13.89" length="14.40" shape="-1.60,307.20 -1.60,292.80"/>
    </edge>
    <edge id=":A2_1" function="internal">
        <lane id=":A2_1_0" index="0" speed="8.00" length="5.93" shape="-1.60,307.20 -1.05,303.35 -0.00,301.60"/>
    </edge>
    <edge id=":A2_2" function="internal">
        <lane id=":A2_2_0" index="0" speed="3.65" length="2.34" shape="-1.60,307.20 -0.80,306.00 0.00,305.60"/>
    </edge>
    <edge id=":A2_9" function="internal">
        <lane id=":A2_9_0" index="0" speed="8.00" length="8.26" shape="-0.00,301.60 0.60,300.60 3.35,298.95 7.20,298.40"/>
    </edge>
    <edge id=":A2_10" function="internal">
        <lane id=":A2_10_0" index="0" speed="3.65" length="2.34" shape="0.00,305.60 0.80,306.00 1.60,307.20"/>
    </edge>
    <edge id=":A2_3" function="internal">
        <lane id=":A2_3_0" index="0" speed="6.51" length="9.03" shape="7.20,301.60 4.75,301.95 3.00,303.00 1.95,304.75 1.60,307.20"/>
    </edge>
    <edge id=":A2_4" function="internal">
        <lane id=":A2_4_0" index="0" speed="8.00" length="14.19" shape="7.20,301.60 3.35,301.05 0.60,299.40 -1.05,296.65 -1.60,292.80"/>
    </edge>
    <edge id=":A2_5" function="internal">
        <lane id=":A2_5_0" index="0" speed="3.65" length="4.67" shape="7.20,301.60 6.00,300.80 5.60,300.00 6.00,299.20 7.20,298.40"/>
    </edge>
    <edge id=":A2_6" function="internal">
        <lane id=":A2_6_0" index="0" speed="6.51" length="9.03" shape="1.60,292.80 1.95,295.25 3.00,297.00 4.75,298.05 7.20,298.40"/>
    </edge>
    <edge id=":A2_7" function="internal">
        <lane id=":A2_7_0" index="0" speed="13.89" length="14.40" shape="1.60,292.80 1.60,307.20"/>
    </edge>
    <edge id=":A2_8" function="internal">
        <lane id=":A2_8_0" index="0" speed="3.65" length="2.34" shape="1.60,292.80 0.80,294.00 0.00,294.40"/>
    </edge>
    <edge id=":A2_11" function="internal">
        <lane id=":A2_11_0" index="0" speed="3.65" length="2.34" shape="0.00,294.40 -0.80,294.00 -1.60,292.80"/>
    </edge>
    <edge id=":A3_0" function="internal">
        <lane id=":A3_0_0" index="0" speed="13.89" length="14.40" shape="-1.60,457.20 -1.60,442.80"/>
    </edge>
    <edge id=":A3_1" function="internal">
        <lane id=":A3_1_0" index="0" speed="8.00" length="5.93" shape="-1.60,457.20 -1.05,453.35 -0.00,451.60"/>
    </edge>
    <edge id=":A3_2" function="internal">
        <lane id=":A3_2_0" index="0" speed="3.65" length="2.34" shape="-1.60,457.20 -0.80,456.00 0.00,455.60"/>
    </edge>
    <edge id=":A3_9" function="internal">
        <lane id=":A3_9_0" index="0" speed="8.00" length="8.26" shape="-0.00,451.60 0.60,450.60 3.35,448.95 7.20,448.40"/>
    </edge>
    <edge id=":A3_10" function="internal">
        <lane id=":A3_10_0" index="0" speed="3.65" length="2.34" shape="0.00,455.60 0.80,456.00 1.60,457.20"/>
    </edge>
    <edge id=":A3_3" function="internal">
        <lane id=":A3_3_0" index="0" speed="6.51" length="9.03" shape="7.20,451.60 4.75,451.95 3.00,453.00 1.95,454.75 1.60,457.20"/>
    </edge>
    <edge id=":A3_4" function="internal">
        <lane id=":A3_4_0" index="0" speed="8.00" length="14.19" shape="7.20,451.60 3.35,451.05 0.60,449.40 -1.05,446.65 -1.60,442.80"/>
    </edge>
    <edge id=":A3_5" function="internal">
        <lane id=":A3_5_0" index="0" speed="3.65" length="4.67" shape="7.20,451.60 6.00,450.80 5.60,450.00 6.00,449.20 7.20,448.40"/>
    </edge>
    <edge id=":A3_6" function="internal">
        <lane id=":A3_6_0" index="0" speed="6.51" length="9.03" shape="1.60,442.80 1.95,445.25 3.00,447.00 4.75,448.05 7.20,448.40"/>
    </edge>
    <edge id=":A3_7" function="internal">
        <lane id=":A3_7_0" index="0" speed="13.89" length="14.40" shape="1.60,442.80 1.60,457.20"/>
    </edge>
    <edge id=":A3_8" function="internal">
        <lane id=":A3_8_0" index="0" speed="3.65" length="2.34" shape="1.60,442.80 0.80,444.00 0.00,444.40"/>
    </edge>
    <edge id=":A3_11" function="internal">
        <lane id=":A3_11_0" index="0" speed="3.65" length="2.34" shape="0.00,444.40 -0.80,444.00 -1.60,442.80"/>
    </edge>
    <edge id=":A4_0" function="internal">
        <lane id=":A4_0_0" index="0" speed="13.89" length="14.40" shape="-1.60,607.20 -1.60,592.80"/>
    </edge>
    <edge id=":A4_1" function="internal">
        <lane id=":A4_1_0" index="0" speed="8.00" length="5.93" shape="-1.60,607.20 -1.05,603.35 0.00,601.60"/>
    </edge>
    <edge id=":A4_2" function="internal">
        <lane id=":A4_2_0" index="0" speed="3.65" length="2.34" shape="-1.60,607.20 -0.80,606.00 0.00,605.60"/>
    </edge>
    <edge id=":A4_9" function="internal">
        <lane id=":A4_9_0" index="0" speed="8.00" length="8.26" shape="0.00,601.60 0.60,600.60 3.35,598.95 7.20,598.40"/>
    </edge>
    <edge id=":A4_10" function="internal">
        <lane id=":A4_10_0" index="0" speed="3.65" length="2.34" shape="0.00,605.60 0.80,606.00 1.60,607.20"/>
    </edge>
    <edge id=":A4_3" function="internal">
        <lane id=":A4_3_0" index="0" speed="6.51" length="9.03" shape="7.20,601.60 4.75,601.95 3.00,603.00 1.95,604.75 1.60,607.20"/>
    </edge>
    <edge id=":A4_4" function="internal">
        <lane id=":A4_4_0" index="0" speed="8.00" length="14.19" shape="7.20,601.60 3.35,601.05 0.60,599.40 -1.05,596.65 -1.60,592.80"/>
    </edge>
    <edge id=":A4_5" function="internal">
        <lane id=":A4_5_0" index="0" speed="3.65" length="4.67" shape="7.20,601.60 6.00,600.80 5.60,600.00 6.00,599.20 7.20,598.40"/>
    </edge>
    <edge id=":A4_6" function="internal">
        <lane id=":A4_6_0" index="0" speed="6.51" length="9.03" shape="1.60,592.80 1.95,595.25 3.00,597.00 4.75,598.05 7.20,598.40"/>
    </edge>
    <edge id=":A4_7" function="internal">
        <lane id=":A4_7_0" index="0" speed="13.89" length="14.40" shape="1.60,592.80 1.60,607.20"/>
    </edge>
    <edge id=":A4_8" function="internal">
        <lane id=":A4_8_0" index="0" speed="3.65" length="2.34" shape="1.60,592.80 0.80,594.00 0.00,594.40"/>
    </edge>
    <edge id=":A4_11" function="internal">
        <lane id=":A4_11_0" index="0" speed="3.65" length="2.34" shape="0.00,594.40 -0.80,594.00 -1.60,592.80"/>
    </edge>
    <edge id=":A5_0" function="internal">
        <lane id=":A5_0_0" index="0" speed="13.89" length="14.40" shape="-1.60,757.20 -1.60,742.80"/>
    </edge>
    <edge id=":A5_1" function="internal">
        <lane id=":A5_1_0" index="0" speed="8.00" length="5.93" shape="-1.60,757.20 -1.05,753.35 0.00,751.60"/>
    </edge>
    <edge id=":A5_2" function="internal">
        <lane id=":A5_2_0" index="0" speed="3.65" length="2.34" shape="-1.60,757.20 -0.80,756.00 0.00,755.60"/>
    </edge>
    <edge id=":A5_9" function="internal">
        <lane id=":A5_9_0" index="0" speed="8.00" length="8.26" shape="0.00,751.60 0.60,750.60 3.35,748.95 7.20,748.40"/>
    </edge>
    <edge id=":A5_10" function="internal">
        <lane id=":A5_10_0" index="0" speed="3.65" length="2.34" shape="0.00,755.60 0.80,756.00 1.60,757.20"/>
    </edge>
    <edge id=":A5_3" function="internal">
        <lane id=":A5_3_0" index="0" speed="6.51" length="9.03" shape="7.20,751.60 4.75,751.95 3.00,753.00 1.95,754.75 1.60,757.20"/>
    </edge>
    <edge id=":A5_4" function="internal">
        <lane id=":A5_4_0" index="0" speed="8.00" length="14.19" shape="7.20,751.60 3.35,751.05 0.60,749.40 -1.05,746.65 -1.60,742.80"/>
    </edge>
    <edge id=":A5_5" function="internal">
        <lane id=":A5_5_0" index="0" speed="3.65" length="4.67" shape="7.20,751.60 6.00,750.80 5.60,750.00 6.00,749.20 7.20,748.40"/>
    </edge>
    <edge id=":A5_6" function="internal">
        <lane id=":A5_6_0" index="0" speed="6.51" length="9.03" shape="1.60,742.80 1.95,745.25 3.00,747.00 4.75,748.05 7.20,748.40"/>
    </edge>
    <edge id=":A5_7" function="internal">
        <lane id=":A5_7_0" index="0" speed="13.89" length="14.40" shape="1.60,742.80 1.60,757.20"/>
    </edge>
    <edge id=":A5_8" function="internal">
        <lane id=":A5_8_0" index="0" speed="3.65" length="2.34" shape="1.60,742.80 0.80,744.00 0.00,744.40"/>
    </edge>
    <edge id=":A5_11" function="internal">
        <lane id=":A5_11_0" index="0" speed="3.65" length="2.34" shape="0.00,744.40 -0.80,744.00 -1.60,742.80"/>
    </edge>
    <edge id=":A6_0" function="internal">
        <lane id=":A6_0_0" index="0" speed="13.89" length="14.40" shape="-1.60,907.20 -1.60,892.80"/>
    </edge>
    <edge id=":A6_1" function="internal">
        <lane id=":A6_1_0" index="0" speed="8.00" length="5.93" shape="-1.60,907.20 -1.05,903.35 0.00,901.60"/>
    </edge>
    <edge id=":A6_2" function="internal">
        <lane id=":A6_2_0" index="0" speed="3.65" length="2.34" shape="-1.60,907.20 -0.80,906.00 0.00,905.60"/>
    </edge>
    <edge id=":A6_9" function="internal">
        <lane id=":A6_9_0" index="0" speed="8.00" length="8.26" shape="0.00,901.60 0.60,900.60 3.35,898.95 7.20,898.40"/>
    </edge>
    <edge id=":A6_10" function="internal">
        <lane id=":A6_10_0" index="0" speed="3.65" length="2.34" shape="0.00,905.60 0.80,906.00 1.60,907.20"/>
    </edge>
    <edge id=":A6_3" function="internal">
        <lane id=":A6_3_0" index="0" speed="6.51" length="9.03" shape="7.20,901.60 4.75,901.95 3.00,903.00 1.95,904.75 1.60,907.20"/>
    </edge>
    <edge id=":A6_4" function="internal">
        <lane id=":A6_4_0" index="0" speed="8.00" length="14.19" shape="7.20,901.60 3.35,901.05 0.60,899.40 -1.05,896.65 -1.60,892.80"/>
    </edge>
    <edge id=":A6_5" function="internal">
        <lane id=":A6_5_0" index="0" speed="3.65" length="4.67" shape="7.20,901.60 6.00,900.80 5.60,900.00 6.00,899.20 7.20,898.40"/>
    </edge>
    <edge id=":A6_6" function="internal">
        <lane id=":A6_6_0" index="0" speed="6.51" length="9.03" shape="1.60,892.80 1.95,895.25 3.00,897.00 4.75,898.05 7.20,898.40"/>
    </edge>
    <edge id=":A6_7" function="internal">
        <lane id=":A6_7_0" index="0" speed="13.89" length="14.40" shape="1.60,892.80 1.60,907.20"/>
    </edge>
    <edge id=":A6_8" function="internal">
        <lane id=":A6_8_0" index="0" speed="3.65" length="2.34" shape="1.60,892.80 0.80,894.00 0.00,894.40"/>
    </edge>
    <edge id=":A6_11" function="internal">
        <lane id=":A6_11_0" index="0" speed="3.65" length="2.34" shape="0.00,894.40 -0.80,894.00 -1.60,892.80"/>
    </edge>
    <edge id=":A7_0" function="internal">
        <lane id=":A7_0_0" index="0" speed="13.89" length="14.40" shape="-1.60,1057.20 -1.60,1042.80"/>
    </edge>
    <edge id=":A7_1" function="internal">
        <lane id=":A7_1_0" index="0" speed="8.00" length="5.93" shape="-1.60,1057.20 -1.05,1053.35 0.00,1051.60"/>
    </edge>
    <edge id=":A7_2" function="internal">
        <lane id=":A7_2_0" index="0" speed="3.65" length="2.34" shape="-1.60,1057.20 -0.80,1056.00 0.00,1055.60"/>
    </edge>
    <edge id=":A7_9" function="internal">
        <lane id=":A7_9_0" index="0" speed="8.00" length="8.26" shape="0.00,1051.60 0.60,1050.60 3.35,1048.95 7.20,1048.40"/>
    </edge>
    <edge id=":A7_10" function="internal">
        <lane id=":A7_10_0" index="0" speed="3.65" length="2.34" shape="0.00,1055.60 0.80,1056.00 1.60,1057.20"/>
    </edge>
    <edge id=":A7_3" function="internal">
        <lane id=":A7_3_0" index="0" speed="6.51" length="9.03" shape="7.20,1051.60 4.75,1051.95 3.00,1053.00 1.95,1054.75 1.60,1057.20"/>
    </edge>
    <edge id=":A7_4" function="internal">
        <lane id=":A7_4_0" index="0" speed="8.00" length="14.19" shape="7.20,1051.60 3.35,1051.05 0.60,1049.40 -1.05,1046.65 -1.60,1042.80"/>
    </edge>
    <edge id=":A7_5" function="internal">
        <lane id=":A7_5_0" index="0" speed="3.65" length="4.67" shape="7.20,1051.60 6.00,1050.80 5.60,1050.00 6.00,1049.20 7.20,1048.40"/>
    </edge>
    <edge id=":A7_6" function="internal">
        <lane id=":A7_6_0" index="0" speed="6.51" length="9.03" shape="1.60,1042.80 1.95,1045.25 3.00,1047.00 4.75,1048.05 7.20,1048.40"/>
    </edge>
    <edge id=":A7_7" function="internal">
        <lane id=":A7_7_0" index="0" speed="13.89" length="14.40" shape="1.60,1042.80 1.60,1057.20"/>
    </edge>
    <edge id=":A7_8" function="internal">
        <lane id=":A7_8_0" index="0" speed="3.65" length="2.34" shape="1.60,1042.80 0.80,1044.00 0.00,1044.40"/>
    </edge>
    <edge id=":A7_11" function="internal">
        <lane id=":A7_11_0" index="0" speed="3.65" length="2.34" shape="0.00,1044.40 -0.80,1044.00 -1.60,1042.80"/>
    </edge>
    <edge id=":A8_0" function="internal">
        <lane id=":A8_0_0" index="0" speed="13.89" length="14.40" shape="-1.60,1207.20 -1.60,1192.80"/>
    </edge>
    <edge id=":A8_1" function="internal">
        <lane id=":A8_1_0" index="0" speed="8.00" length="5.93" shape="-1.60,1207.20 -1.05,1203.35 0.00,1201.60"/>
    </edge>
    <edge id=":A8_2" function="internal">
        <lane id=":A8_2_0" index="0" speed="3.65" length="2.34" shape="-1.60,1207.20 -0.80,1206.00 0.00,1205.60"/>
    </edge>
    <edge id=":A8_9" function="internal">
        <lane id=":A8_9_0" index="0" speed="8.00" length="8.26" shape="0.00,1201.60 0.60,1200.60 3.35,1198.95 7.20,1198.40"/>
    </edge>
    <edge id=":A8_10" function="internal">
        <lane id=":A8_10_0" index="0" speed="3.65" length="2.34" shape="0.00,1205.60 0.80,1206.00 1.60,1207.20"/>
    </edge>
    <edge id=":A8_3" function="internal">
        <lane id=":A8_3_0" index="0" speed="6.51" length="9.03" shape="7.20,1201.60 4.75,1201.95 3.00,1203.00 1.95,1204.75 1.60,1207.20"/>
    </edge>
    <edge id=":A8_4" function="internal">
        <lane id=":A8_4_0" index="0" speed="8.00" length="14.19" shape="7.20,1201.60 3.35,1201.05 0.60,1199.40 -1.05,1196.65 -1.60,1192.80"/>
    </edge>
    <edge id=":A8_5" function="internal">
        <lane id=":A8_5_0" index="0" speed="3.65" length="4.67" shape="7.20,1201.60 6.00,1200.80 5.60,1200.00 6.00,1199.20 7.20,1198.40"/>
    </edge>
    <edge id=":A8_6" function="internal">
        <lane id=":A8_6_0" index="0" speed="6.51" length="9.03" shape="1.60,1192.80 1.95,1195.25 3.00,1197.00 4.75,1198.05 7.20,1198.40"/>
    </edge>
    <edge id=":A8_7" function="internal">
        <lane id=":A8_7_0" index="0" speed="13.89" length="14.40" shape="1.60,1192.80 1.60,1207.20"/>
    </edge>
    <edge id=":A8_8" function="internal">
        <lane id=":A8_8_0" index="0" speed="3.65" length="2.34" shape="1.60,1192.80 0.80,1194.00 0.00,1194.40"/>
    </edge>
    <edge id=":A8_11" function="internal">
        <lane id=":A8_11_0" index="0" speed="3.65" length="2.34" shape="0.00,1194.40 -0.80,1194.00 -1.60,1192.80"/>
    </edge>
    <edge id=":A9_0" function="internal">
        <lane id=":A9_0_0" index="0" speed="13.89" length="14.40" shape="-1.60,1357.20 -1.60,1342.80"/>
    </edge>
    <edge id=":A9_1" function="internal">
        <lane id=":A9_1_0" index="0" speed="8.00" length="5.93" shape="-1.60,1357.20 -1.05,1353.35 0.00,1351.60"/>
    </edge>
    <edge id=":A9_2" function="internal">
        <lane id=":A9_2_0" index="0" speed="3.65" length="2.34" shape="-1.60,1357.20 -0.80,1356.00 0.00,1355.60"/>
    </edge>
    <edge id=":A9_9" function="internal">
        <lane id=":A9_9_0" index="0" speed="8.00" length="8.26" shape="0.00,1351.60 0.60,1350.60 3.35,1348.95 7.20,1348.40"/>
    </edge>
    <edge id=":A9_10" function="internal">
        <lane id=":A9_10_0" index="0" speed="3.65" length="2.34" shape="0.00,1355.60 0.80,1356.00 1.60,1357.20"/>
    </edge>
    <edge id=":A9_3" function="internal">
        <lane id=":A9_3_0" index="0" speed="6.51" length="9.03" shape="7.20,1351.60 4.75,1351.95 3.00,1353.00 1.95,1354.75 1.60,1357.20"/>
    </edge>
    <edge id=":A9_4" function="internal">
        <lane id=":A9_4_0" index="0" speed="8.00" length="14.19" shape="7.20,1351.60 3.35,1351.05 0.60,1349.40 -1.05,1346.65 -1.60,1342.80"/>
    </edge>
    <edge id=":A9_5" function="internal">
        <lane id=":A9_5_0" index="0" speed="3.65" length="4.67" shape="7.20,1351.60 6.00,1350.80 5.60,1350.00 6.00,1349.20 7.20,1348.40"/>
    </edge>
    <edge id=":A9_6" function="internal">
        <lane id=":A9_6_0" index="0" speed="6.51" length="9.03" shape="1.60,1342.80 1.95,1345.25 3.00,1347.00 4.75,1348.05 7.20,1348.40"/>
    </edge>
    <edge id=":A9_7" function="internal">
        <lane id=":A9_7_0" index="0" speed="13.89" length="14.40" shape="1.60,1342.80 1.60,1357.20"/>
    </edge>
    <edge id=":A9_8" function="internal">
        <lane id=":A9_8_0" index="0" speed="3.65" length="2.34" shape="1.60,1342.80 0.80,1344.00 0.00,1344.40"/>
    </edge>
    <edge id=":A9_11" function="internal">
        <lane id=":A9_11_0" index="0" speed="3.65" length="2.34" shape="0.00,1344.40 -0.80,1344.00 -1.60,1342.80"/>
    </edge>
    <edge id=":B0_0" function="internal">
        <lane id=":B0_0_0" index="0" speed="6.51" length="9.03" shape="148.40,7.20 148.05,4.75 147.00,3.00 145.25,1.95 142.80,1.60"/>
    </edge>
    <edge id=":B0_1" function="internal">
        <lane id=":B0_1_0" index="0" speed="8.00" length="14.19" shape="148.40,7.20 148.95,3.35 150.60,0.60 153.35,-1.05 157.20,-1.60"/>
    </edge>
    <edge id=":B0_2" function="internal">
        <lane id=":B0_2_0" index="0" speed="3.65" length="4.67" shape="148.40,7.20 149.20,6.00 150.00,5.60 150.80,6.00 151.60,7.20"/>
    </edge>
    <edge id=":B0_3" function="internal">
        <lane id=":B0_3_0" index="0" speed="6.51" length="9.03" shape="157.20,1.60 154.75,1.95 153.00,3.00 151.95,4.75 151.60,7.20"/>
    </edge>
    <edge id=":B0_4" function="internal">
        <lane id=":B0_4_0" index="0" speed="13.89" length="14.40" shape="157.20,1.60 142.80,1.60"/>
    </edge>
    <edge id=":B0_5" function="internal">