<?xml version='1.0' encoding='us-ascii'?>
<additional xmlns:xsi="http://www.w3.org/2001/XMLSchema-instance" xsi:noNamespaceSchemaLocation="http://sumo.dlr.de/xsd/additional_file.xsd">
	<poly id="building-0_0-0_0" type="building" fill="1" layer="-1.0" color="128,128,128" shape="15.0,15.0 35.0,15.0 35.0,35.0 15.0,35.0 15.0,15.0" height="29.089" />
	<poly id="building-0_0-0_1" type="building" fill="1" layer="-1.0" color="128,128,128" shape="15.0,40.0 35.0,40.0 35.0,60.0 15.0,60.0 15.0,40.0" height="36.524" />
	<poly id="building-0_0-0_2" type="building" fill="1" layer="-1.0" color="128,128,128" shape="15.0,65.0 35.0,65.0 35.0,85.0 15.0,85.0 15.0,65.0" height="40.212" />
	<poly id="building-0_0-0_3" type="building" fill="1" layer="-1.0" color="128,128,128" shape="15.0,90.0 35.0,90.0 35.0,110.0 15.0,110.0 15.0,90.0" height="42.822" />
	<poly id="building-0_1-0_0" type="building" fill="1" layer="-1.0" color="128,128,128" shape="40.0,15.0 60.0,15.0 60.0,35.0 40.0,35.0 40.0,15.0" height="49.777" />
	<poly id="building-0_1-0_1" type="building" fill="1" layer="-1.0" color="128,128,128" shape="40.0,40.0 60.0,40.0 60.0,60.0 40.0,60.0 40.0,40.0" height="23.208" />
	<poly id="building-0_1-0_2" type="building" fill="1" layer="-1.0" color="128,128,128" shape="40.0,65.0 60.0,65.0 60.0,85.0 40.0,85.0 40.0,65.0" height="34.306" />
	<poly id="building-0_1-0_3" type="building" fill="1" layer="-1.0" color="128,128,128" shape="40.0,90.0 60.0,90.0 60.0,110.0 40.0,110.0 40.0,90.0" height="48.056" />
	<poly id="building-0_2-0_0" type="building" fill="1" layer="-1.0" color="128,128,128" shape="65.0,15.0 85.0,15.0 85.0,35.0 65.0,35.0 65.0,15.0" height="12.713" />
	<poly id="building-0_2-0_1" type="building" fill="1" layer="-1.0" color="128,128,128" shape="65.0,40.0 85.0,40.0 85.0,60.0 65.0,60.0 65.0,40.0" height="32.565" />
	<poly id="building-0_2-0_2" type="building" fill="1" layer="-1.0" color="128,128,128" shape="65.0,65.0 85.0,65.0 85.0,85.0 65.0,85.0 65.0,65.0" height="28.582" />
	<poly id="building-0_2-0_3" type="building" fill="1" layer="-1.0" color="128,128,128" shape="65.0,90.0 85.0,90.0 85.0,110.0 65.0,110.0 65.0,90.0" height="27.172" />
	<poly id="building-0_3-0_0" type="building" fill="1" layer="-1.0" color="128,128,128" shape="90.0,15.0 110.0,15.0 110.0,35.0 90.0,35.0 90.0,15.0" height="30.310" />
	<poly id="building-0_3-0_1" type="building" fill="1" layer="-1.0" color="128,128,128" shape="90.0,40.0 110.0,40.0 110.0,60.0 90.0,60.0 90.0,40.0" height="16.246" />
	<poly id="building-0_3-0_2" type="building" fill="1" layer="-1.0" color="128,128,128" shape="90.0,65.0 110.0,65.0 110.0,85.0 90.0,85.0 90.0,65.0" height="23.717" />
	<poly id="building-0_3-0_3" type="building" fill="1" layer="-1.0" color="128,128,128" shape="90.0,90.0 110.0,90.0 110.0,110.0 90.0,110.0 90.0,90.0" height="17.234" />
	<poly id="building-0_0-1_0" type="building" fill="1" layer="-1.0" color="128,128,128" shape="15.0,140.0 35.0,140.0 35.0,160.0 15.0,160.0 15.0,140.0" height="43.848" />
	<poly id="building-0_0-1_1" type="building" fill="1" layer="-1.0" color="128,128,128" shape="15.0,165.0 35.0,165.0 35.0,185.0 15.0,185.0 15.0,165.0" height="43.453" />
	<poly id="building-0_0-1_2" type="building" fill="1" layer="-1.0" color="128,128,128" shape="15.0,190.0 35.0,190.0 35.0,210.0 15.0,210.0 15.0,190.0" height="46.948" />
	<poly id="building-0_0-1_3" type="building" fill="1" layer="-1.0" color="128,128,128" shape="15.0,215.0 35.0,215.0 35.0,235.0 15.0,235.0 15.0,215.0" height="32.202" />
	<poly id="building-0_1-1_0" type="building" fill="1" layer="-1.0" color="128,128,128" shape="40.0,140.0 60.0,140.0 60.0,160.0 40.0,160.0 40.0,140.0" height="40.332" />
	<poly id="building-0_1-1_1" type="building" fill="1" layer="-1.0" color="128,128,128" shape="40.0,165.0 60.0,165.0 60.0,185.0 40.0,185.0 40.0,165.0" height="25.423" />
	<poly id="building-0_1-1_2" type="building" fill="1" layer="-1.0" color="128,128,128" shape="40.0,190.0 60.0,190.0 60.0,210.0 40.0,210.0 40.0,190.0" height="22.762" />
	<poly id="building-0_1-1_3" type="building" fill="1" layer="-1.0" color="128,128,128" shape="40.0,215.0 60.0,215.0 60.0,235.0 40.0,235.0 40.0,215.0" height="35.406" />
	<poly id="building-0_2-1_0" type="building" fill="1" layer="-1.0" color="128,128,128" shape="65.0,140.0 85.0,140.0 85.0,160.0 65.0,160.0 65.0,140.0" height="16.153" />
	<poly id="building-0_2-1_1" type="building" fill="1" layer="-1.0" color="128,128,128" shape="65.0,165.0 85.0,165.0 85.0,185.0 65.0,185.0 65.0,165.0" height="46.448" />
	<poly id="building-0_2-1_2" type="building" fill="1" layer="-1.0" color="128,128,128" shape="65.0,190.0 85.0,190.0 85.0,210.0 65.0,210.0 65.0,190.0" height="47.483" />
	<poly id="building-0_2-1_3" type="building" fill="1" layer="-1.0" color="128,128,128" shape="65.0,215.0 85.0,215.0 85.0,235.0 65.0,235.0 65.0,215.0" height="29.512" />
	<poly id="building-0_3-1_0" type="building" fill="1" layer="-1.0" color="128,128,128" shape="90.0,140.0 110.0,140.0 110.0,160.0 90.0,160.0 90.0,140.0" height="43.240" />
	<poly id="building-0_3-1_1" type="building" fill="1" layer="-1.0" color="128,128,128" shape="90.0,165.0 110.0,165.0 110.0,185.0 90.0,185.0 90.0,165.0" height="38.911" />
	<poly id="building-0_3-1_2" type="building" fill="1" layer="-1.0" color="128,128,128" shape="90.0,190.0 110.0,190.0 110.0,210.0 90.0,210.0 90.0,190.0" height="48.177" />
	<poly id="building-0_3-1_3" type="building" fill="1" layer="-1.0" color="128,128,128" shape="90.0,215.0 110.0,215.0 110.0,235.0 90.0,235.0 90.0,215.0" height="46.684" />
	<poly id="building-0_0-2_0" type="building" fill="1" layer="-1.0" color="128,128,128" shape="15.0,265.0 35.0,265.0 35.0,285.0 15.0,285.0 15.0,265.0" height="33.525" />
	<poly id="building-0_0-2_1" type="building" fill="1" layer="-1.0" color="128,128,128" shape="15.0,290.0 35.0,290.0 35.0,310.0 15.0,310.0 15.0,290.0" height="15.370" />
	<poly id="building-0_0-2_2" type="building" fill="1" layer="-1.0" color="128,128,128" shape="15.0,315.0 35.0,315.0 35.0,335.0 15.0,335.0 15.0,315.0" height="27.189" />
	<poly id="building-0_0-2_3" type="building" fill="1" layer="-1.0" color="128,128,128" shape="15.0,340.0 35.0,340.0 35.0,360.0 15.0,360.0 15.0,340.0" height="38.987" />
	<poly id="building-0_1-2_0" type="building" fill="1" layer="-1.0" color="128,128,128" shape="40.0,265.0 60.0,265.0 60.0,285.0 40.0,285.0 40.0,265.0" height="39.345" />
	<poly id="building-0_1-2_1" type="building" fill="1" layer="-1.0" color="128,128,128" shape="40.0,290.0 60.0,290.0 60.0,310.0 40.0,310.0 40.0,290.0" height="48.059" />
	<poly id="building-0_1-2_2" type="building" fill="1" layer="-1.0" color="128,128,128" shape="40.0,315.0 60.0,315.0 60.0,335.0 40.0,335.0 40.0,315.0" height="16.509" />
	<poly id="building-0_1-2_3" type="building" fill="1" layer="-1.0" color="128,128,128" shape="40.0,340.0 60.0,340.0 60.0,360.0 40.0,360.0 40.0,340.0" height="26.605" />
	<poly id="building-0_2-2_0" type="building" fill="1" layer="-1.0" color="128,128,128" shape="65.0,265.0 85.0,265.0 85.0,285.0 65.0,285.0 65.0,265.0" height="30.549" />
	<poly id="building-0_2-2_1" type="building" fill="1" layer="-1.0" color="128,128,128" shape="65.0,290.0 85.0,290.0 85.0,310.0 65.0,310.0 65.0,290.0" height="45.493" />
	<poly id="building-0_2-2_2" type="building" fill="1" layer="-1.0" color="128,128,128" shape="65.0,315.0 85.0,315.0 85.0,335.0 65.0,335.0 65.0,315.0" height="29.904" />
	<poly id="building-0_2-2_3" type="building" fill="1" layer="-1.0" color="128,128,128" shape="65.0,340.0 85.0,340.0 85.0,360.0 65.0,360.0 65.0,340.0" height="32.356" />
	<poly id="building-0_3-2_0" type="building" fill="1" layer="-1.0" color="128,128,128" shape="90.0,265.0 110.0,265.0 110.0,285.0 90.0,285.0 90.0,265.0" height="47.922" />
	<poly id="building-0_3-2_1" type="building" fill="1" layer="-1.0" color="128,128,128" shape="90.0,290.0 110.0,290.0 110.0,310.0 90.0,310.0 90.0,290.0" height="28.971" />
	<poly id="building-0_3-2_2" type="building" fill="1" layer="-1.0" color="128,128,128" shape="90.0,315.0 110.0,315.0 110.0,335.0 90.0,335.0 90.0,315.0" height="40.638" />
	<poly id="building-0_3-2_3" type="building" fill="1" layer="-1.0" color="128,128,128" shape="90.0,340.0 110.0,340.0 110.0,360.0 90.0,360.0 90.0,340.0" height="14.410" />
	<poly id="building-0_0-3_0" type="building" fill="1" layer="-1.0" color="128,128,128" shape="15.0,390.0 35.0,390.0 35.0,410.0 15.0,410.0 15.0,390.0" height="24.760" />
	<poly id="building-0_0-3_1" type="building" fill="1" layer="-1.0" color="128,128,128" shape="15.0,415.0 35.0,415.0 35.0,435.0 15.0,435.0 15.0,415.0" height="34.519" />
	<poly id="building-0_0-3_2" type="building" fill="1" layer="-1.0" color="128,128,128" shape="15.0,440.0 35.0,440.0 35.0,460.0 15.0,460.0 15.0,440.0" height="18.989" />
	<poly id="building-0_0-3_3" type="building" fill="1" layer="-1.0" color="128,128,128" shape="15.0,465.0 35.0,465.0 35.0,485.0 15.0,485.0 15.0,465.0" height="13.838" />
	<poly id="building-0_1-3_0" type="building" fill="1" layer="-1.0" color="128,128,128" shape="40.0,390.0 60.0,390.0 60.0,410.0 40.0,410.0 40.0,390.0" height="37.257" />
	<poly id="building-0_1-3_1" type="building" fill="1" layer="-1.0" color="128,128,128" shape="40.0,415.0 60.0,415.0 60.0,435.0 40.0,435.0 40.0,415.0" height="10.340" />
	<poly id="building-0_1-3_2" type="building" fill="1" layer="-1.0" color="128,128,128" shape="40.0,440.0 60.0,440.0 60.0,460.0 40.0,460.0 40.0,440.0" height="33.885" />
	<poly id="building-0_1-3_3" type="building" fill="1" layer="-1.0" color="128,128,128" shape="40.0,465.0 60.0,465.0 60.0,485.0 40.0,485.0 40.0,465.0" height="13.945" />
	<poly id="building-0_2-3_0" type="building" fill="1" layer="-1.0" color="128,128,128" shape="65.0,390.0 85.0,390.0 85.0,410.0 65.0,410.0 65.0,390.0" height="34.346" />
	<poly id="building-0_2-3_1" type="building" fill="1" layer="-1.0" color="128,128,128" shape="65.0,415.0 85.0,415.0 85.0,435.0 65.0,435.0 65.0,415.0" height="31.651" />
	<poly id="building-0_2-3_2" type="building" fill="1" layer="-1.0" color="128,128,128" shape="65.0,440.0 85.0,440.0 85.0,460.0 65.0,460.0 65.0,440.0" height="11.160" />
	<poly id="building-0_2-3_3" type="building" fill="1" layer="-1.0" color="128,128,128" shape="65.0,465.0 85.0,465.0 85.0,485.0 65.0,485.0 65.0,465.0" height="40.577" />
	<poly id="building-0_3-3_0" type="building" fill="1" layer="-1.0" color="128,128,128" shape="90.0,390.0 110.0,390.0 110.0,410.0 90.0,410.0 90.0,390.0" height="46.026" />
	<poly id="building-0_3-3_1" type="building" fill="1" layer="-1.0" color="128,128,128" shape="90.0,415.0 110.0,415.0 110.0,435.0 90.0,435.0 90.0,415.0" height="23.300" />
	<poly id="building-0_3-3_2" type="building" fill="1" layer="-1.0" color="128,128,128" shape="90.0,440.0 110.0,440.0 110.0,460.0 90.0,460.0 90.0,440.0" height="30.151" />
	<poly id="building-0_3-3_3" type="building" fill="1" layer="-1.0" color="128,128,128" shape="90.0,465.0 110.0,465.0 110.0,485.0 90.0,485.0 90.0,465.0" height="26.048" />
	<poly id="building-0_0-4_0" type="building" fill="1" layer="-1.0" color="128,128,128" shape="15.0,515.0 35.0,515.0 35.0,535.0 15.0,535.0 15.0,515.0" height="31.223" />
	<poly id="building-0_0-4_1" type="building" fill="1" layer="-1.0" color="128,128,128" shape="15.0,540.0 35.0,540.0 35.0,560.0 15.0,560.0 15.0,540.0" height="48.248" />
	<poly id="building-0_0-4_2" type="building" fill="1" layer="-1.0" color="128,128,128" shape="15.0,565.0 35.0,565.0 35.0,585.0 15.0,585.0 15.0,565.0" height="23.695" />
	<poly id="building-0_0-4_3" type="building" fill="1" layer="-1.0" color="128,128,128" shape="15.0,590.0 35.0,590.0 35.0,610.0 15.0,610.0 15.0,590.0" height="41.502" />
	<poly id="building-0_1-4_0" type="building" fill="1" layer="-1.0" color="128,128,128" shape="40.0,515.0 60.0,515.0 60.0,535.0 40.0,535.0 40.0,515.0" height="11.997" />
	<poly id="building-0_1-4_1" type="building" fill="1" layer="-1.0" color="128,128,128" shape="40.0,540.0 60.0,540.0 60.0,560.0 40.0,560.0 40.0,540.0" height="49.493" />
	<poly id="building-0_1-4_2" type="building" fill="1" layer="-1.0" color="128,128,128" shape="40.0,565.0 60.0,565.0 60.0,585.0 40.0,585.0 40.0,565.0" height="48.072" />
	<poly id="building-0_1-4_3" type="building" fill="1" layer="-1.0" color="128,128,128" shape="40.0,590.0 60.0,590.0 60.0,610.0 40.0,610.0 40.0,590.0" height="20.264" />
	<poly id="building-0_2-4_0" type="building" fill="1" layer="-1.0" color="128,128,128" shape="65.0,515.0 85.0,515.0 85.0,535.0 65.0,535.0 65.0,515.0" height="21.381" />
	<poly id="building-0_2-4_1" type="building" fill="1" layer="-1.0" color="128,128,128" shape="65.0,540.0 85.0,540.0 85.0,560.0 65.0,560.0 65.0,540.0" height="46.739" />
	<poly id="building-0_2-4_2" type="building" fill="1" layer="-1.0" color="128,128,128" shape="65.0,565.0 85.0,565.0 85.0,585.0 65.0,585.0 65.0,565.0" height="33.250" />
	<poly id="building-0_2-4_3" type="building" fill="1" layer="-1.0" color="128,128,128" shape="65.0,590.0 85.0,590.0 85.0,610.0 65.0,610.0 65.0,590.0" height="47.497" />
	<poly id="building-0_3-4_0" type="building" fill="1" layer="-1.0" color="128,128,128" shape="90.0,515.0 110.0,515.0 110.0,535.0 90.0,535.0 90.0,515.0" height="43.593" />
	<poly id="building-0_3-4_1" type="building" fill="1" layer="-1.0" color="128,128,128" shape="90.0,540.0 110.0,540.0 110.0,560.0 90.0,560.0 90.0,540.0" height="16.417" />
	<poly id="building-0_3-4_2" type="building" fill="1" layer="-1.0" color="128,128,128" shape="90.0,565.0 110.0,565.0 110.0,585.0 90.0,585.0 90.0,565.0" height="47.151" />
	<poly id="building-0_3-4_3" type="building" fill="1" layer="-1.0" color="128,128,128" shape="90.0,590.0 110.0,590.0 110.0,610.0 90.0,610.0 90.0,590.0" height="17.559" />
	<poly id="building-0_0-5_0" type="building" fill="1" layer="-1.0" color="128,128,128" shape="15.0,640.0 35.0,640.0 35.0,660.0 15.0,660.0 15.0,640.0" height="26.615" />
	<poly id="building-0_0-5_1" type="building" fill="1" layer="-1.0" color="128,128,128" shape="15.0,665.0 35.0,665.0 35.0,685.0 15.0,685.0 15.0,665.0" height="13.644" />
	<poly id="building-0_0-5_2" type="building" fill="1" layer="-1.0" color="128,128,128" shape="15.0,690.0 35.0,690.0 35.0,710.0 15.0,710.0 15.0,690.0" height="47.562" />
	<poly id="building-0_0-5_3" type="building" fill="1" layer="-1.0" color="128,128,128" shape="15.0,715.0 35.0,715.0 35.0,735.0 15.0,735.0 15.0,715.0" height="21.575" />
	<poly id="building-0_1-5_0" type="building" fill="1" layer="-1.0" color="128,128,128" shape="40.0,640.0 60.0,640.0 60.0,660.0 40.0,660.0 40.0,640.0" height="42.066" />
	<poly id="building-0_1-5_1" type="building" fill="1" layer="-1.0" color="128,128,128" shape="40.0,665.0 60.0,665.0 60.0,685.0 40.0,685.0 40.0,665.0" height="12.127" />
	<poly id="building-0_1-5_2" type="building" fill="1" layer="-1.0" color="128,128,128" shape="40.0,690.0 60.0,690.0 60.0,710.0 40.0,710.0 40.0,690.0" height="14.318" />
	<poly id="building-0_1-5_3" type="building" fill="1" layer="-1.0" color="128,128,128" shape="40.0,715.0 60.0,715.0 60.0,735.0 40.0,735.0 40.0,715.0" height="49.371" />
	<poly id="building-0_2-5_0" type="building" fill="1" layer="-1.0" color="128,128,128" shape="65.0,640.0 85.0,640.0 85.0,660.0 65.0,660.0 65.0,640.0" height="38.771" />
	<poly id="building-0_2-5_1" type="building" fill="1" layer="-1.0" color="128,128,128" shape="65.0,665.0 85.0,665.0 85.0,685.0 65.0,685.0 65.0,665.0" height="34.049" />
	<poly id="building-0_2-5_2" type="building" fill="1" layer="-1.0" color="128,128,128" shape="65.0,690.0 85.0,690.0 85.0,710.0 65.0,710.0 65.0,690.0" height="42.684" />
	<poly id="building-0_2-5_3" type="building" fill="1" layer="-1.0" color="128,128,128" shape="65.0,715.0 85.0,715.0 85.0,735.0 65.0,735.0 65.0,715.0" height="32.539" />
	<poly id="building-0_3-5_0" type="building" fill="1" layer="-1.0" color="128,128,128" shape="90.0,640.0 110.0,640.0 110.0,660.0 90.0,660.0 90.0,640.0" height="22.399" />
	<poly id="building-0_3-5_1" type="building" fill="1" layer="-1.0" color="128,128,128" shape="90.0,665.0 110.0,665.0 110.0,685.0 90.0,685.0 90.0,665.0" height="35.253" />
	<poly id="building-0_3-5_2" type="building" fill="1" layer="-1.0" color="128,128,128" shape="90.0,690.0 110.0,690.0 110.0,710.0 90.0,710.0 90.0,690.0" height="15.681" />
	<poly id="building-0_3-5_3" type="building" fill="1" layer="-1.0" color="128,128,128" shape="90.0,715.0 110.0,715.0 110.0,735.0 90.0,735.0 90.0,715.0" height="48.078" />
	<poly id="building-0_0-6_0" type="building" fill="1" layer="-1.0" color="128,128,128" shape="15.0,765.0 35.0,765.0 35.0,785.0 15.0,785.0 15.0,765.0" height="20.072" />
	<poly id="building-0_0-6_1" type="building" fill="1" layer="-1.0" color="128,128,128" shape="15.0,790.0 35.0,790.0 35.0,810.0 15.0,810.0 15.0,790.0" height="14.252" />
	<poly id="building-0_0-6_2" type="building" fill="1" layer="-1.0" color="128,128,128" shape="15.0,815.0 35.0,815.0 35.0,835.0 15.0,835.0 15.0,815.0" height="20.686" />
	<poly id="building-0_0-6_3" type="building" fill="1" layer="-1.0" color="128,128,128" shape="15.0,840.0 35.0,840.0 35.0,860.0 15.0,860.0 15.0,840.0" height="17.666" />
	<poly id="building-0_1-6_0" type="building" fill="1" layer="-1.0" color="128,128,128" shape="40.0,765.0 60.0,765.0 60.0,785.0 40.0,785.0 40.0,765.0" height="45.078" />
	<poly id="building-0_1-6_1" type="building" fill="1" layer="-1.0" color="128,128,128" shape="40.0,790.0 60.0,790.0 60.0,810.0 40.0,810.0 40.0,790.0" height="30.388" />
	<poly id="building-0_1-6_2" type="building" fill="1" layer="-1.0" color="128,128,128" shape="40.0,815.0 60.0,815.0 60.0,835.0 40.0,835.0 40.0,815.0" height="19.345" />
	<poly id="building-0_1-6_3" type="building" fill="1" layer="-1.0" color="128,128,128" shape="40.0,840.0 60.0,840.0 60.0,860.0 40.0,860.0 40.0,840.0" height="43.865" />
	<poly id="building-0_2-6_0" type="building" fill="1" layer="-1.0" color="128,128,128" shape="65.0,765.0 85.0,765.0 85.0,785.0 65.0,785.0 65.0,765.0" height="10.591" />
	<poly id="building-0_2-6_1" type="building" fill="1" layer="-1.0" color="128,128,128" shape="65.0,790.0 85.0,790.0 85.0,810.0 65.0,810.0 65.0,790.0" height="41.993" />
	<poly id="building-0_2-6_2" type="building" fill="1" layer="-1.0" color="128,128,128" shape="65.0,815.0 85.0,815.0 85.0,835.0 65.0,835.0 65.0,815.0" height="28.564" />
	<poly id="building-0_2-6_3" type="building" fill="1" layer="-1.0" color="128,128,128" shape="65.0,840.0 85.0,840.0 85.0,860.0 65.0,860.0 65.0,840.0" height="39.383" />
	<poly id="building-0_3-6_0" type="building" fill="1" layer="-1.0" color="128,128,128" shape="90.0,765.0 110.0,765.0 110.0,785.0 90.0,785.0 90.0,765.0" height="21.336" />
	<poly id="building-0_3-6_1" type="building" fill="1" layer="-1.0" color="128,128,128" shape="90.0,790.0 110.0,790.0 110.0,810.0 90.0,810.0 90.0,790.0" height="14.627" />
	<poly id="building-0_3-6_2" type="building" fill="1" layer="-1.0" color="128,128,128" shape="90.0,815.0 110.0,815.0 110.0,835.0 90.0,835.0 90.0,815.0" height="28.630" />
	<poly id="building-0_3-6_3" type="building" fill="1" layer="-1.0" color="128,128,128" shape="90.0,840.0 110.0,840.0 110.0,860.0 90.0,860.0 90.0,840.0" height="33.485" />
	<poly id="building-0_0-7_0" type="building" fill="1" layer="-1.0" color="128,128,128" shape="15.0,890.0 35.0,890.0 35.0,910.0 15.0,910.0 15.0,890.0" height="24.583" />
	<poly id="building-0_0-7_1" type="building" fill="1" layer="-1.0" color="128,128,128" shape="15.0,915.0 35.0,915.0 35.0,935.0 15.0,935.0 15.0,915.0" height="24.623" />
	<poly id="building-0_0-7_2" type="building" fill="1" layer="-1.0" color="128,128,128" shape="15.0,940.0 35.0,940.0 35.0,960.0 15.0,960.0 15.0,940.0" height="26.646" />
	<poly id="building-0_0-7_3" type="building" fill="1" layer="-1.0" color="128,128,128" shape="15.0,965.0 35.0,965.0 35.0,985.0 15.0,985.0 15.0,965.0" height="21.305" />
	<poly id="building-0_1-7_0" type="building" fill="1" layer="-1.0" color="128,128,128" shape="40.0,890.0 60.0,890.0 60.0,910.0 40.0,910.0 40.0,890.0" height="34.977" />
	<poly id="building-0_1-7_1" type="building" fill="1" layer="-1.0" color="128,128,128" shape="40.0,915.0 60.0,915.0 60.0,935.0 40.0,935.0 40.0,915.0" height="14.398" />
	<poly id="building-0_1-7_2" type="building" fill="1" layer="-1.0" color="128,128,128" shape="40.0,940.0 60.0,940.0 60.0,960.0 40.0,960.0 40.0,940.0" height="44.095" />
	<poly id="building-0_1-7_3" type="building" fill="1" layer="-1.0" color="128,128,128" shape="40.0,965.0 60.0,965.0 60.0,985.0 40.0,985.0 40.0,965.0" height="32.418" />
	<poly id="building-0_2-7_0" type="building" fill="1" layer="-1.0" color="128,128,128" shape="65.0,890.0 85.0,890.0 85.0,910.0 65.0,910.0 65.0,890.0" height="29.981" />
	<poly id="building-0_2-7_1" type="building" fill="1" layer="-1.0" color="128,128,128" shape="65.0,915.0 85.0,915.0 85.0,935.0 65.0,935.0 65.0,915.0" height="32.282" />
	<poly id="building-0_2-7_2" type="building" fill="1" layer="-1.0" color="128,128,128" shape="65.0,940.0 85.0,940.0 85.0,960.0 65.0,960.0 65.0,940.0" height="41.644" />
	<poly id="building-0_2-7_3" type="building" fill="1" layer="-1.0" color="128,128,128" shape="65.0,965.0 85.0,965.0 85.0,985.0 65.0,985.0 65.0,965.0" height="46.222" />
	<poly id="building-0_3-7_0" type="building" fill="1" layer="-1.0" color="128,128,128" shape="90.0,890.0 110.0,890.0 110.0,910.0 90.0,910.0 90.0,890.0" height="27.288" />
	<poly id="building-0_3-7_1" type="building" fill="1" layer="-1.0" color="128,128,128" shape="90.0,915.0 110.0,915.0 110.0,935.0 90.0,935.0 90.0,915.0" height="19.803" />
	<poly id="building-0_3-7_2" type="building" fill="1" layer="-1.0" color="128,128,128" shape="90.0,940.0 110.0,940.0 110.0,960.0 90.0,960.0 90.0,940.0" height="16.510" />
	<poly id="building-0_3-7_3" type="building" fill="1" layer="-1.0" color="128,128,128" shape="90.0,965.0 110.0,965.0 110.0,985.0 90.0,985.0 90.0,965.0" height="21.968" />
	<poly id="building-0_0-8_0" type="building" fill="1" layer="-1.0" color="128,128,128" shape="15.0,1015.0 35.0,1015.0 35.0,1035.0 15.0,1035.0 15.0,1015.0" height="32.258" />
	<poly id="building-0_0-8_1" type="building" fill="1" layer="-1.0" color="128,128,128" shape="15.0,1040.0 35.0,1040.0 35.0,1060.0 15.0,1060.0 15.0,1040.0" height="31.845" />
	<poly id="building-0_0-8_2" type="building" fill="1" layer="-1.0" color="128,128,128" shape="15.0,1065.0 35.0,1065.0 35.0,1085.0 15.0,1085.0 15.0,1065.0" height="23.735" />
	<poly id="building-0_0-8_3" type="building" fill="1" layer="-1.0" color="128,128,128" shape="15.0,1090.0 35.0,1090.0 35.0,1110.0 15.0,1110.0 15.0,1090.0" height="33.001" />
	<poly id="building-0_1-8_0" type="building" fill="1" layer="-1.0" color="128,128,128" shape="40.0,1015.0 60.0,1015.0 60.0,1035.0 40.0,1035.0 40.0,1015.0" height="23.785" />
	<poly id="building-0_1-8_1" type="building" fill="1" layer="-1.0" color="128,128,128" shape="40.0,1040.0 60.0,1040.0 60.0,1060.0 40.0,1060.0 40.0,1040.0" height="29.847" />
	<poly id="building-0_1-8_2" type="building" fill="1" layer="-1.0" color="128,128,128" shape="40.0,1065.0 60.0,1065.0 60.0,1085.0 40.0,1085.0 40.0,1065.0" height="28.062" />
	<poly id="building-0_1-8_3" type="building" fill="1" layer="-1.0" color="128,128,128" shape="40.0,1090.0 60.0,1090.0 60.0,1110.0 40.0,1110.0 40.0,1090.0" height="24.703" />
	<poly id="building-0_2-8_0" type="building" fill="1" layer="-1.0" color="128,128,128" shape="65.0,1015.0 85.0,1015.0 85.0,1035.0 65.0,1035.0 65.0,1015.0" height="12.249" />
	<poly id="building-0_2-8_1" type="building" fill="1" layer="-1.0" color="128,128,128" shape="65.0,1040.0 85.0,1040.0 85.0,1060.0 65.0,1060.0 65.0,1040.0" height="31.687" />
	<poly id="building-0_2-8_2" type="building" fill="1" layer="-1.0" color="128,128,128" shape="65.0,1065.0 85.0,1065.0 85.0,1085.0 65.0,1085.0 65.0,1065.0" height="40.093" />
	<poly id="building-0_2-8_3" type="building" fill="1" layer="-1.0" color="128,128,128" shape="65.0,1090.0 85.0,1090.0 85.0,1110.0 65.0,1110.0 65.0,1090.0" height="41.223" />
	<poly id="building-0_3-8_0" type="building" fill="1" layer="-1.0" color="128,128,128" shape="90.0,1015.0 110.0,1015.0 110.0,1035.0 90.0,1035.0 90.0,1015.0" height="30.862" />
	<poly id="building-0_3-8_1" type="building" fill="1" layer="-1.0" color="128,128,128" shape="90.0,1040.0 110.0,1040.0 110.0,1060.0 90.0,1060.0 90.0,1040.0" height="17.733" />
	<poly id="building-0_3-8_2" type="building" fill="1" layer="-1.0" color="128,128,128" shape="90.0,1065.0 110.0,1065.0 110.0,1085.0 90.0,1085.0 90.0,1065.0" height="41.509" />
	<poly id="building-0_3-8_3" type="building" fill="1" layer="-1.0" color="128,128,128" shape="90.0,1090.0 110.0,1090.0 110.0,1110.0 90.0,1110.0 90.0,1090.0" height="44.893" />
	<poly id="building-0_0-9_0" type="building" fill="1" layer="-1.0" color="128,128,128" shape="15.0,1140.0 35.0,1140.0 35.0,1160.0 15.0,1160.0 15.0,1140.0" height="28.065" />
	<poly id="building-0_0-9_1" type="building" fill="1" layer="-1.0" color="128,128,128" shape="15.0,1165.0 35.0,1165.0 35.0,1185.0 15.0,1185.0 15.0,1165.0" height="35.976" />
	<poly id="building-0_0-9_2" type="building" fill="1" layer="-1.0" color="128,128,128" shape="15.0,1190.0 35.0,1190.0 35.0,1210.0 15.0,1210.0 15.0,1190.0" height="31.064" />
	<poly id="building-0_0-9_3" type="building" fill="1" layer="-1.0" color="128,128,128" shape="15.0,1215.0 35.0,1215.0 35.0,1235.0 15.0,1235.0 15.0,1215.0" height="32.932" />
	<poly id="building-0_1-9_0" type="building" fill="1" layer="-1.0" color="128,128,128" shape="40.0,1140.0 60.0,1140.0 60.0,1160.0 40.0,1160.0 40.0,1140.0" height="11.099" />
	<poly id="building-0_1-9_1" type="building" fill="1" layer="-1.0" color="128,128,128" shape="40.0,1165.0 60.0,1165.0 60.0,1185.0 40.0,1185.0 40.0,1165.0" height="27.806" />
	<poly id="building-0_1-9_2" type="building" fill="1" layer="-1.0" color="128,128,128" shape="40.0,1190.0 60.0,1190.0 60.0,1210.0 40.0,1210.0 40.0,1190.0" height="37.969" />
	<poly id="building-0_1-9_3" type="building" fill="1" layer="-1.0" color="128,128,128" shape="40.0,1215.0 60.0,1215.0 60.0,1235.0 40.0,1235.0 40.0,1215.0" height="25.161" />
	<poly id="building-0_2-9_0" type="building" fill="1" layer="-1.0" color="128,128,128" shape="65.0,1140.0 85.0,1140.0 85.0,1160.0 65.0,1160.0 65.0,1140.0" height="43.519" />
	<poly id="building-0_2-9_1" type="building" fill="1" layer="-1.0" color="128,128,128" shape="65.0,1165.0 85.0,1165.0 85.0,1185.0 65.0,1185.0 65.0,1165.0" height="33.139" />
	<poly id="building-0_2-9_2" type="building" fill="1" layer="-1.0" color="128,128,128" shape="65.0,1190.0 85.0,1190.0 85.0,1210.0 65.0,1210.0 65.0,1190.0" height="22.586" />
	<poly id="building-0_2-9_3" type="building" fill="1" layer="-1.0" color="128,128,128" shape="65.0,1215.0 85.0,1215.0 85.0,1235.0 65.0,1235.0 65.0,1215.0" height="35.768" />
	<poly id="building-0_3-9_0" type="building" fill="1" layer="-1.0" color="128,128,128" shape="90.0,1140.0 110.0,1140.0 110.0,1160.0 90.0,1160.0 90.0,1140.0" height="46.243" />
	<poly id="building-0_3-9_1" type="building" fill="1" layer="-1.0" color="128,128,128" shape="90.0,1165.0 110.0,1165.0 110.0,1185.0 90.0,1185.0 90.0,1165.0" height="48.288" />
	<poly id="building-0_3-9_2" type="building" fill="1" layer="-1.0" color="128,128,128" shape="90.0,1190.0 110.0,1190.0 110.0,1210.0 90.0,1210.0 90.0,1190.0" height="48.614" />
	<poly id="building-0_3-9_3" type="building" fill="1" layer="-1.0" color="128,128,128" shape="90.0,1215.0 110.0,1215.0 110.0,1235.0 90.0,1235.0 90.0,1215.0" height="17.545" />
	<poly id="building-0_0-10_0" type="building" fill="1" layer="-1.0" color="128,128,128" shape="15.0,1265.0 35.0,1265.0 35.0,1285.0 15.0,1285.0 15.0,1265.0" height="20.969" />
	<poly id="building-0_0-10_1" type="building" fill="1" layer="-1.0" color="128,128,128" shape="15.0,1290.0 35.0,1290.0 35.0,1310.0 15.0,1310.0 15.0,1290.0" height="20.226" />
	<poly id="building-0_0-10_2" type="building" fill="1" layer="-1.0" color="128,128,128" shape="15.0,1315.0 35.0,1315.0 35.0,1335.0 15.0,1335.0 15.0,1315.0" height="34.822" />
	<poly id="building-0_0-10_3" type="building" fill="1" layer="-1.0" color="128,128,128" shape="15.0,1340.0 35.0,1340.0 35.0,1360.0 15.0,1360.0 15.0,1340.0" height="22.901" />
	<poly id="building-0_1-10_0" type="building" fill="1" layer="-1.0" color="128,128,128" shape="40.0,1265.0 60.0,1265.0 60.0,1285.0 40.0,1285.0 40.0,1265.0" height="10.421" />
	<poly id="building-0_1-10_1" type="building" fill="1" layer="-1.0" color="128,128,128" shape="40.0,1290.0 60.0,1290.0 60.0,1310.0 40.0,1310.0 40.0,1290.0" height="11.351" />
	<poly id="building-0_1-10_2" type="building" fill="1" layer="-1.0" color="128,128,128" shape="40.0,1315.0 60.0,1315.0 60.0,1335.0 40.0,1335.0 40.0,1315.0" height="36.831" />
	<poly id="building-0_1-10_3" type="building" fill="1" layer="-1.0" color="128,128,128" shape="40.0,1340.0 60.0,1340.0 60.0,1360.0 40.0,1360.0 40.0,1340.0" height="25.620" />
	<poly id="building-0_2-10_0" type="building" fill="1" layer="-1.0" color="128,128,128" shape="65.0,1265.0 85.0,1265.0 85.0,1285.0 65.0,1285.0 65.0,1265.0" height="45.781" />
	<poly id="building-0_2-10_1" type="building" fill="1" layer="-1.0" color="128,128,128" shape="65.0,1290.0 85.0,1290.0 85.0,1310.0 65.0,1310.0 65.0,1290.0" height="10.216" />
	<poly id="building-0_2-10_2" type="building" fill="1" layer="-1.0" color="128,128,128" shape="65.0,1315.0 85.0,1315.0 85.0,1335.0 65.0,1335.0 65.0,1315.0" height="33.953" />
	<poly id="building-0_2-10_3" type="building" fill="1" layer="-1.0" color="128,128,128" shape="65.0,1340.0 85.0,1340.0 85.0,1360.0 65.0,1360.0 65.0,1340.0" height="23.160" />
	<poly id="building-0_3-10_0" type="building" fill="1" layer="-1.0" color="128,128,128" shape="90.0,1265.0 110.0,1265.0 110.0,1285.0 90.0,1285.0 90.0,1265.0" height="37.288" />
	<poly id="building-0_3-10_1" type="building" fill="1" layer="-1.0" color="128,128,128" shape="90.0,1290.0 110.0,1290.0 110.0,1310.0 90.0,1310.0 90.0,1290.0" height="34.206" />