<?xml version="1.0" encoding="UTF-8"?>
<!-- generated on 2023-02-13 03:33:03.202315 by $Id$ v1_8_0+0044-4820708f3d
  options: -n drones.net.xml -b 0 -e 60 -p 30 <doubleminus>random -i 64 -o drones.trips.xml
-->
<routes>
    <trip id="0" depart="0.00" from="A2B2" to="B0B1" via="B2A2 B1B2 B2C2 B1B2 A0B0 A2A1 B1B0 B0B1 B1C1 B0C0 A2B2 C2C1 A1A0 B2B1 B1A1 B2A2 A1A2 A0B0 B2B1 B2C2 B1B0 B1B2 C1B1 B2B1 C0C1 C0C1 A1A0 B0C0 B2B1 B1C1 A2B2 C2B2 B1B2 A2A1 B0A0 B1C1 A1A2 B1B2 C1C2 B2C2 B2A2 B0B1 A2B2 A2B2 C0B0 B1B2 A2B2 B2C2 C1C2 B0C0 A0A1 A0B0 A1A0 B2A2 B2A2 B1C1 A1A2 C1C2 A0A1 B1B0 C1B1 B1B2 B0A0 C2C1" />
    <trip id="1" depart="30.00" from="B2C2" to="A0B0" via="B1B2 B1B2 C0B0 B0A0 A0A1 C2B2 B2A2 A2B2 A0B0 C0C1 C0C1 A0A1 C1B1 A0B0 A1A0 B1B0 C2C1 A2A1 B0B1 B1B0 B0C0 B2C2 B1C1 B2B1 B2C2 B0C0 A1A2 B2B1 B2A2 C2B2 B1B0 B2A2 A2B2 B1C1 B1B2 A0A1 A2B2 B1B0 B2C2 B0C0 A0A1 A2B2 B1B2 A0B0 B2A2 B1C1 B0B1 B1A1 A0B0 B0B1 B2B1 C1C0 A1A0 C1B1 B1B2 B2B1 C0B0 C0B0 A0A1 B1B0 C2C1 C1B1 B1C1 C0C1" />
</routes>
