<?xml version='1.0' encoding='us-ascii'?>
<additional xmlns:xsi="http://www.w3.org/2001/XMLSchema-instance" xsi:noNamespaceSchemaLocation="http://sumo.dlr.de/xsd/additional_file.xsd">
	<poly id="building-0_0-0_0" type="building" fill="1" layer="-1.0" color="128,128,128" shape="10.0,10.0 72.5,10.0 72.5,72.5 10.0,72.5 10.0,10.0" height="38.312" />
	<poly id="building-0_0-0_1" type="building" fill="1" layer="-1.0" color="128,128,128" shape="10.0,82.5 72.5,82.5 72.5,145.0 10.0,145.0 10.0,82.5" height="14.560" />
	<poly id="building-0_0-0_2" type="building" fill="1" layer="-1.0" color="128,128,128" shape="10.0,155.0 72.5,155.0 72.5,217.5 10.0,217.5 10.0,155.0" height="49.876" />
	<poly id="building-0_0-0_3" type="building" fill="1" layer="-1.0" color="128,128,128" shape="10.0,227.5 72.5,227.5 72.5,290.0 10.0,290.0 10.0,227.5" height="48.449" />
	<poly id="building-0_1-0_0" type="building" fill="1" layer="-1.0" color="128,128,128" shape="82.5,10.0 145.0,10.0 145.0,72.5 82.5,72.5 82.5,10.0" height="42.815" />
	<poly id="building-0_1-0_1" type="building" fill="1" layer="-1.0" color="128,128,128" shape="82.5,82.5 145.0,82.5 145.0,145.0 82.5,145.0 82.5,82.5" height="40.992" />
	<poly id="building-0_1-0_2" type="building" fill="1" layer="-1.0" color="128,128,128" shape="82.5,155.0 145.0,155.0 145.0,217.5 82.5,217.5 82.5,155.0" height="14.110" />
	<poly id="building-0_1-0_3" type="building" fill="1" layer="-1.0" color="128,128,128" shape="82.5,227.5 145.0,227.5 145.0,290.0 82.5,290.0 82.5,227.5" height="32.906" />
	<poly id="building-0_2-0_0" type="building" fill="1" layer="-1.0" color="128,128,128" shape="155.0,10.0 217.5,10.0 217.5,72.5 155.0,72.5 155.0,10.0" height="13.946" />
	<poly id="building-0_2-0_1" type="building" fill="1" layer="-1.0" color="128,128,128" shape="155.0,82.5 217.5,82.5 217.5,145.0 155.0,145.0 155.0,82.5" height="21.906" />
	<poly id="building-0_2-0_2" type="building" fill="1" layer="-1.0" color="128,128,128" shape="155.0,155.0 217.5,155.0 217.5,217.5 155.0,217.5 155.0,155.0" height="15.136" />
	<poly id="building-0_2-0_3" type="building" fill="1" layer="-1.0" color="128,128,128" shape="155.0,227.5 217.5,227.5 217.5,290.0 155.0,290.0 155.0,227.5" height="26.697" />
	<poly id="building-0_3-0_0" type="building" fill="1" layer="-1.0" color="128,128,128" shape="227.5,10.0 290.0,10.0 290.0,72.5 227.5,72.5 227.5,10.0" height="24.483" />
	<poly id="building-0_3-0_1" type="building" fill="1" layer="-1.0" color="128,128,128" shape="227.5,82.5 290.0,82.5 290.0,145.0 227.5,145.0 227.5,82.5" height="30.194" />
	<poly id="building-0_3-0_2" type="building" fill="1" layer="-1.0" color="128,128,128" shape="227.5,155.0 290.0,155.0 290.0,217.5 227.5,217.5 227.5,155.0" height="27.863" />
	<poly id="building-0_3-0_3" type="building" fill="1" layer="-1.0" color="128,128,128" shape="227.5,227.5 290.0,227.5 290.0,290.0 227.5,290.0 227.5,227.5" height="42.792" />
	<poly id="building-0_0-1_0" type="building" fill="1" layer="-1.0" color="128,128,128" shape="10.0,310.0 72.5,310.0 72.5,372.5 10.0,372.5 10.0,310.0" height="24.504" />
	<poly id="building-0_0-1_1" type="building" fill="1" layer="-1.0" color="128,128,128" shape="10.0,382.5 72.5,382.5 72.5,445.0 10.0,445.0 10.0,382.5" height="44.873" />
	<poly id="building-0_0-1_2" type="building" fill="1" layer="-1.0" color="128,128,128" shape="10.0,455.0 72.5,455.0 72.5,517.5 10.0,517.5 10.0,455.0" height="16.078" />
	<poly id="building-0_0-1_3" type="building" fill="1" layer="-1.0" color="128,128,128" shape="10.0,527.5 72.5,527.5 72.5,590.0 10.0,590.0 10.0,527.5" height="45.782" />
	<poly id="building-0_1-1_0" type="building" fill="1" layer="-1.0" color="128,128,128" shape="82.5,310.0 145.0,310.0 145.0,372.5 82.5,372.5 82.5,310.0" height="28.898" />
	<poly id="building-0_1-1_1" type="building" fill="1" layer="-1.0" color="128,128,128" shape="82.5,382.5 145.0,382.5 145.0,445.0 82.5,445.0 82.5,382.5" height="27.957" />
	<poly id="building-0_1-1_2" type="building" fill="1" layer="-1.0" color="128,128,128" shape="82.5,455.0 145.0,455.0 145.0,517.5 82.5,517.5 82.5,455.0" height="10.067" />
	<poly id="building-0_1-1_3" type="building" fill="1" layer="-1.0" color="128,128,128" shape="82.5,527.5 145.0,527.5 145.0,590.0 82.5,590.0 82.5,527.5" height="23.394" />
	<poly id="building-0_2-1_0" type="building" fill="1" layer="-1.0" color="128,128,128" shape="155.0,310.0 217.5,310.0 217.5,372.5 155.0,372.5 155.0,310.0" height="46.500" />
	<poly id="building-0_2-1_1" type="building" fill="1" layer="-1.0" color="128,128,128" shape="155.0,382.5 217.5,382.5 217.5,445.0 155.0,445.0 155.0,382.5" height="40.459" />
	<poly id="building-0_2-1_2" type="building" fill="1" layer="-1.0" color="128,128,128" shape="155.0,455.0 217.5,455.0 217.5,517.5 155.0,517.5 155.0,455.0" height="33.337" />
	<poly id="building-0_2-1_3" type="building" fill="1" layer="-1.0" color="128,128,128" shape="155.0,527.5 217.5,527.5 217.5,590.0 155.0,590.0 155.0,527.5" height="44.685" />
	<poly id="building-0_3-1_0" type="building" fill="1" layer="-1.0" color="128,128,128" shape="227.5,310.0 290.0,310.0 290.0,372.5 227.5,372.5 227.5,310.0" height="20.790" />
	<poly id="building-0_3-1_1" type="building" fill="1" layer="-1.0" color="128,128,128" shape="227.5,382.5 290.0,382.5 290.0,445.0 227.5,445.0 227.5,382.5" height="11.507" />
	<poly id="building-0_3-1_2" type="building" fill="1" layer="-1.0" color="128,128,128" shape="227.5,455.0 290.0,455.0 290.0,517.5 227.5,517.5 227.5,455.0" height="24.352" />
	<poly id="building-0_3-1_3" type="building" fill="1" layer="-1.0" color="128,128,128" shape="227.5,527.5 290.0,527.5 290.0,590.0 227.5,590.0 227.5,527.5" height="23.859" />
	<poly id="building-0_0-2_0" type="building" fill="1" layer="-1.0" color="128,128,128" shape="10.0,610.0 72.5,610.0 72.5,672.5 10.0,672.5 10.0,610.0" height="17.180" />
	<poly id="building-0_0-2_1" type="building" fill="1" layer="-1.0" color="128,128,128" shape="10.0,682.5 72.5,682.5 72.5,745.0 10.0,745.0 10.0,682.5" height="33.957" />
	<poly id="building-0_0-2_2" type="building" fill="1" layer="-1.0" color="128,128,128" shape="10.0,755.0 72.5,755.0 72.5,817.5 10.0,817.5 10.0,755.0" height="43.513" />
	<poly id="building-0_0-2_3" type="building" fill="1" layer="-1.0" color="128,128,128" shape="10.0,827.5 72.5,827.5 72.5,890.0 10.0,890.0 10.0,827.5" height="16.466" />
	<poly id="building-0_1-2_0" type="building" fill="1" layer="-1.0" color="128,128,128" shape="82.5,610.0 145.0,610.0 145.0,672.5 82.5,672.5 82.5,610.0" height="17.510" />
	<poly id="building-0_1-2_1" type="building" fill="1" layer="-1.0" color="128,128,128" shape="82.5,682.5 145.0,682.5 145.0,745.0 82.5,745.0 82.5,682.5" height="33.160" />
	<poly id="building-0_1-2_2" type="building" fill="1" layer="-1.0" color="128,128,128" shape="82.5,755.0 145.0,755.0 145.0,817.5 82.5,817.5 82.5,755.0" height="48.479" />
	<poly id="building-0_1-2_3" type="building" fill="1" layer="-1.0" color="128,128,128" shape="82.5,827.5 145.0,827.5 145.0,890.0 82.5,890.0 82.5,827.5" height="32.165" />
	<poly id="building-0_2-2_0" type="building" fill="1" layer="-1.0" color="128,128,128" shape="155.0,610.0 217.5,610.0 217.5,672.5 155.0,672.5 155.0,610.0" height="49.198" />
	<poly id="building-0_2-2_1" type="building" fill="1" layer="-1.0" color="128,128,128" shape="155.0,682.5 217.5,682.5 217.5,745.0 155.0,745.0 155.0,682.5" height="36.648" />
	<poly id="building-0_2-2_2" type="building" fill="1" layer="-1.0" color="128,128,128" shape="155.0,755.0 217.5,755.0 217.5,817.5 155.0,817.5 155.0,755.0" height="28.121" />
	<poly id="building-0_2-2_3" type="building" fill="1" layer="-1.0" color="128,128,128" shape="155.0,827.5 217.5,827.5 217.5,890.0 155.0,890.0 155.0,827.5" height="43.498" />
	<poly id="building-0_3-2_0" type="building" fill="1" layer="-1.0" color="128,128,128" shape="227.5,610.0 290.0,610.0 290.0,672.5 227.5,672.5 227.5,610.0" height="49.931" />
	<poly id="building-0_3-2_1" type="building" fill="1" layer="-1.0" color="128,128,128" shape="227.5,682.5 290.0,682.5 290.0,745.0 227.5,745.0 227.5,682.5" height="17.923" />
	<poly id="building-0_3-2_2" type="building" fill="1" layer="-1.0" color="128,128,128" shape="227.5,755.0 290.0,755.0 290.0,817.5 227.5,817.5 227.5,755.0" height="19.672" />
	<poly id="building-0_3-2_3" type="building" fill="1" layer="-1.0" color="128,128,128" shape="227.5,827.5 290.0,827.5 290.0,890.0 227.5,890.0 227.5,827.5" height="46.126" />
	<poly id="building-0_0-3_0" type="building" fill="1" layer="-1.0" color="128,128,128" shape="10.0,910.0 72.5,910.0 72.5,972.5 10.0,972.5 10.0,910.0" height="16.224" />
	<poly id="building-0_0-3_1" type="building" fill="1" layer="-1.0" color="128,128,128" shape="10.0,982.5 72.5,982.5 72.5,1045.0 10.0,1045.0 10.0,982.5" height="49.747" />
	<poly id="building-0_0-3_2" type="building" fill="1" layer="-1.0" color="128,128,128" shape="10.0,1055.0 72.5,1055.0 72.5,1117.5 10.0,1117.5 10.0,1055.0" height="27.360" />
	<poly id="building-0_0-3_3" type="building" fill="1" layer="-1.0" color="128,128,128" shape="10.0,1127.5 72.5,1127.5 72.5,1190.0 10.0,1190.0 10.0,1127.5" height="19.434" />
	<poly id="building-0_1-3_0" type="building" fill="1" layer="-1.0" color="128,128,128" shape="82.5,910.0 145.0,910.0 145.0,972.5 82.5,972.5 82.5,910.0" height="44.392" />
	<poly id="building-0_1-3_1" type="building" fill="1" layer="-1.0" color="128,128,128" shape="82.5,982.5 145.0,982.5 145.0,1045.0 82.5,1045.0 82.5,982.5" height="26.542" />
	<poly id="building-0_1-3_2" type="building" fill="1" layer="-1.0" color="128,128,128" shape="82.5,1055.0 145.0,1055.0 145.0,1117.5 82.5,1117.5 82.5,1055.0" height="48.512" />
	<poly id="building-0_1-3_3" type="building" fill="1" layer="-1.0" color="128,128,128" shape="82.5,1127.5 145.0,1127.5 145.0,1190.0 82.5,1190.0 82.5,1127.5" height="40.178" />
	<poly id="building-0_2-3_0" type="building" fill="1" layer="-1.0" color="128,128,128" shape="155.0,910.0 217.5,910.0 217.5,972.5 155.0,972.5 155.0,910.0" height="10.848" />
	<poly id="building-0_2-3_1" type="building" fill="1" layer="-1.0" color="128,128,128" shape="155.0,982.5 217.5,982.5 217.5,1045.0 155.0,1045.0 155.0,982.5" height="26.847" />
	<poly id="building-0_2-3_2" type="building" fill="1" layer="-1.0" color="128,128,128" shape="155.0,1055.0 217.5,1055.0 217.5,1117.5 155.0,1117.5 155.0,1055.0" height="28.038" />
	<poly id="building-0_2-3_3" type="building" fill="1" layer="-1.0" color="128,128,128" shape="155.0,1127.5 217.5,1127.5 217.5,1190.0 155.0,1190.0 155.0,1127.5" height="46.370" />
	<poly id="building-0_3-3_0" type="building" fill="1" layer="-1.0" color="128,128,128" shape="227.5,910.0 290.0,910.0 290.0,972.5 227.5,972.5 227.5,910.0" height="15.599" />
	<poly id="building-0_3-3_1" type="building" fill="1" layer="-1.0" color="128,128,128" shape="227.5,982.5 290.0,982.5 290.0,1045.0 227.5,1045.0 227.5,982.5" height="46.728" />
	<poly id="building-0_3-3_2" type="building" fill="1" layer="-1.0" color="128,128,128" shape="227.5,1055.0 290.0,1055.0 290.0,1117.5 227.5,1117.5 227.5,1055.0" height="10.698" />
	<poly id="building-0_3-3_3" type="building" fill="1" layer="-1.0" color="128,128,128" shape="227.5,1127.5 290.0,1127.5 290.0,1190.0 227.5,1190.0 227.5,1127.5" height="44.237" />
	<poly id="building-1_0-0_0" type="building" fill="1" layer="-1.0" color="128,128,128" shape="310.0,10.0 372.5,10.0 372.5,72.5 310.0,72.5 310.0,10.0" height="36.544" />
	<poly id="building-1_0-0_1" type="building" fill="1" layer="-1.0" color="128,128,128" shape="310.0,82.5 372.5,82.5 372.5,145.0 310.0,145.0 310.0,82.5" height="38.480" />
	<poly id="building-1_0-0_2" type="building" fill="1" layer="-1.0" color="128,128,128" shape="310.0,155.0 372.5,155.0 372.5,217.5 310.0,217.5 310.0,155.0" height="35.286" />
	<poly id="building-1_0-0_3" type="building" fill="1" layer="-1.0" color="128,128,128" shape="310.0,227.5 372.5,227.5 372.5,290.0 310.0,290.0 310.0,227.5" height="12.773" />
	<poly id="building-1_1-0_0" type="building" fill="1" layer="-1.0" color="128,128,128" shape="382.5,10.0 445.0,10.0 445.0,72.5 382.5,72.5 382.5,10.0" height="34.575" />
	<poly id="building-1_1-0_1" type="building" fill="1" layer="-1.0" color="128,128,128" shape="382.5,82.5 445.0,82.5 445.0,145.0 382.5,145.0 382.5,82.5" height="31.945" />
	<poly id="building-1_1-0_2" type="building" fill="1" layer="-1.0" color="128,128,128" shape="382.5,155.0 445.0,155.0 445.0,217.5 382.5,217.5 382.5,155.0" height="20.221" />
	<poly id="building-1_1-0_3" type="building" fill="1" layer="-1.0" color="128,128,128" shape="382.5,227.5 445.0,227.5 445.0,290.0 382.5,290.0 382.5,227.5" height="12.642" />
	<poly id="building-1_2-0_0" type="building" fill="1" layer="-1.0" color="128,128,128" shape="455.0,10.0 517.5,10.0 517.5,72.5 455.0,72.5 455.0,10.0" height="37.293" />
	<poly id="building-1_2-0_1" type="building" fill="1" layer="-1.0" color="128,128,128" shape="455.0,82.5 517.5,82.5 517.5,145.0 455.0,145.0 455.0,82.5" height="38.504" />
	<poly id="building-1_2-0_2" type="building" fill="1" layer="-1.0" color="128,128,128" shape="455.0,155.0 517.5,155.0 517.5,217.5 455.0,217.5 455.0,155.0" height="35.653" />
	<poly id="building-1_2-0_3" type="building" fill="1" layer="-1.0" color="128,128,128" shape="455.0,227.5 517.5,227.5 517.5,290.0 455.0,290.0 455.0,227.5" height="12.506" />
	<poly id="building-1_3-0_0" type="building" fill="1" layer="-1.0" color="128,128,128" shape="527.5,10.0 590.0,10.0 590.0,72.5 527.5,72.5 527.5,10.0" height="24.847" />
	<poly id="building-1_3-0_1" type="building" fill="1" layer="-1.0" color="128,128,128" shape="527.5,82.5 590.0,82.5 590.0,145.0 527.5,145.0 527.5,82.5" height="30.494" />
	<poly id="building-1_3-0_2" type="building" fill="1" layer="-1.0" color="128,128,128" shape="527.5,155.0 590.0,155.0 590.0,217.5 527.5,217.5 527.5,155.0" height="48.886" />
	<poly id="building-1_3-0_3" type="building" fill="1" layer="-1.0" color="128,128,128" shape="527.5,227.5 590.0,227.5 590.0,290.0 527.5,290.0 527.5,227.5" height="42.266" />
	<poly id="building-1_0-1_0" type="building" fill="1" layer="-1.0" color="128,128,128" shape="310.0,310.0 372.5,310.0 372.5,372.5 310.0,372.5 310.0,310.0" height="48.672" />
	<poly id="building-1_0-1_1" type="building" fill="1" layer="-1.0" color="128,128,128" shape="310.0,382.5 372.5,382.5 372.5,445.0 310.0,445.0 310.0,382.5" height="45.246" />
	<poly id="building-1_0-1_2" type="building" fill="1" layer="-1.0" color="128,128,128" shape="310.0,455.0 372.5,455.0 372.5,517.5 310.0,517.5 310.0,455.0" height="46.162" />
	<poly id="building-1_0-1_3" type="building" fill="1" layer="-1.0" color="128,128,128" shape="310.0,527.5 372.5,527.5 372.5,590.0 310.0,590.0 310.0,527.5" height="21.885" />
	<poly id="building-1_1-1_0" type="building" fill="1" layer="-1.0" color="128,128,128" shape="382.5,310.0 445.0,310.0 445.0,372.5 382.5,372.5 382.5,310.0" height="47.907" />
	<poly id="building-1_1-1_1" type="building" fill="1" layer="-1.0" color="128,128,128" shape="382.5,382.5 445.0,382.5 445.0,445.0 382.5,445.0 382.5,382.5" height="40.436" />
	<poly id="building-1_1-1_2" type="building" fill="1" layer="-1.0" color="128,128,128" shape="382.5,455.0 445.0,455.0 445.0,517.5 382.5,517.5 382.5,455.0" height="13.389" />
	<poly id="building-1_1-1_3" type="building" fill="1" layer="-1.0" color="128,128,128" shape="382.5,527.5 445.0,527.5 445.0,590.0 382.5,590.0 382.5,527.5" height="34.842" />
	<poly id="building-1_2-1_0" type="building" fill="1" layer="-1.0" color="128,128,128" shape="455.0,310.0 517.5,310.0 517.5,372.5 455.0,372.5 455.0,310.0" height="25.457" />
	<poly id="building-1_2-1_1" type="building" fill="1" layer="-1.0" color="128,128,128" shape="455.0,382.5 517.5,382.5 517.5,445.0 455.0,445.0 455.0,382.5" height="30.281" />
	<poly id="building-1_2-1_2" type="building" fill="1" layer="-1.0" color="128,128,128" shape="455.0,455.0 517.5,455.0 517.5,517.5 455.0,517.5 455.0,455.0" height="22.368" />
	<poly id="building-1_2-1_3" type="building" fill="1" layer="-1.0" color="128,128,128" shape="455.0,527.5 517.5,527.5 517.5,590.0 455.0,590.0 455.0,527.5" height="19.111" />
	<poly id="building-1_3-1_0" type="building" fill="1" layer="-1.0" color="128,128,128" shape="527.5,310.0 590.0,310.0 590.0,372.5 527.5,372.5 527.5,310.0" height="47.899" />
	<poly id="building-1_3-1_1" type="building" fill="1" layer="-1.0" color="128,128,128" shape="527.5,382.5 590.0,382.5 590.0,445.0 527.5,445.0 527.5,382.5" height="47.532" />
	<poly id="building-1_3-1_2" type="building" fill="1" layer="-1.0" color="128,128,128" shape="527.5,455.0 590.0,455.0 590.0,517.5 527.5,517.5 527.5,455.0" height="37.359" />
	<poly id="building-1_3-1_3" type="building" fill="1" layer="-1.0" color="128,128,128" shape="527.5,527.5 590.0,527.5 590.0,590.0 527.5,590.0 527.5,527.5" height="25.754" />
	<poly id="building-1_0-2_0" type="building" fill="1" layer="-1.0" color="128,128,128" shape="310.0,610.0 372.5,610.0 372.5,672.5 310.0,672.5 310.0,610.0" height="12.579" />
	<poly id="building-1_0-2_1" type="building" fill="1" layer="-1.0" color="128,128,128" shape="310.0,682.5 372.5,682.5 372.5,745.0 310.0,745.0 310.0,682.5" height="49.066" />
	<poly id="building-1_0-2_2" type="building" fill="1" layer="-1.0" color="128,128,128" shape="310.0,755.0 372.5,755.0 372.5,817.5 310.0,817.5 310.0,755.0" height="13.415" />
	<poly id="building-1_0-2_3" type="building" fill="1" layer="-1.0" color="128,128,128" shape="310.0,827.5 372.5,827.5 372.5,890.0 310.0,890.0 310.0,827.5" height="29.958" />
	<poly id="building-1_1-2_0" type="building" fill="1" layer="-1.0" color="128,128,128" shape="382.5,610.0 445.0,610.0 445.0,672.5 382.5,672.5 382.5,610.0" height="31.573" />
	<poly id="building-1_1-2_1" type="building" fill="1" layer="-1.0" color="128,128,128" shape="382.5,682.5 445.0,682.5 445.0,745.0 382.5,745.0 382.5,682.5" height="43.256" />
	<poly id="building-1_1-2_2" type="building" fill="1" layer="-1.0" color="128,128,128" shape="382.5,755.0 445.0,755.0 445.0,817.5 382.5,817.5 382.5,755.0" height="45.718" />
	<poly id="building-1_1-2_3" type="building" fill="1" layer="-1.0" color="128,128,128" shape="382.5,827.5 445.0,827.5 445.0,890.0 382.5,890.0 382.5,827.5" height="17.075" />
	<poly id="building-1_2-2_0" type="building" fill="1" layer="-1.0" color="128,128,128" shape="455.0,610.0 517.5,610.0 517.5,672.5 455.0,672.5 455.0,610.0" height="35.523" />
	<poly id="building-1_2-2_1" type="building" fill="1" layer="-1.0" color="128,128,128" shape="455.0,682.5 517.5,682.5 517.5,745.0 455.0,745.0 455.0,682.5" height="18.435" />
	<poly id="building-1_2-2_2" type="building" fill="1" layer="-1.0" color="128,128,128" shape="455.0,755.0 517.5,755.0 517.5,817.5 455.0,817.5 455.0,755.0" height="14.599" />
	<poly id="building-1_2-2_3" type="building" fill="1" layer="-1.0" color="128,128,128" shape="455.0,827.5 517.5,827.5 517.5,890.0 455.0,890.0 455.0,827.5" height="27.729" />
	<poly id="building-1_3-2_0" type="building" fill="1" layer="-1.0" color="128,128,128" shape="527.5,610.0 590.0,610.0 590.0,672.5 527.5,672.5 527.5,610.0" height="27.341" />
	<poly id="building-1_3-2_1" type="building" fill="1" layer="-1.0" color="128,128,128" shape="527.5,682.5 590.0,682.5 590.0,745.0 527.5,745.0 527.5,682.5" height="30.182" />
	<poly id="building-1_3-2_2" type="building" fill="1" layer="-1.0" color="128,128,128" shape="527.5,755.0 590.0,755.0 590.0,817.5 527.5,817.5 527.5,755.0" height="48.960" />
	<poly id="building-1_3-2_3" type="building" fill="1" layer="-1.0" color="128,128,128" shape="527.5,827.5 590.0,827.5 590.0,890.0 527.5,890.0 527.5,827.5" height="23.297" />
	<poly id="building-1_0-3_0" type="building" fill="1" layer="-1.0" color="128,128,128" shape="310.0,910.0 372.5,910.0 372.5,972.5 310.0,972.5 310.0,910.0" height="22.987" />
	<poly id="building-1_0-3_1" type="building" fill="1" layer="-1.0" color="128,128,128" shape="310.0,982.5 372.5,982.5 372.5,1045.0 310.0,1045.0 310.0,982.5" height="47.457" />
	<poly id="building-1_0-3_2" type="building" fill="1" layer="-1.0" color="128,128,128" shape="310.0,1055.0 372.5,1055.0 372.5,1117.5 310.0,1117.5 310.0,1055.0" height="16.827" />
	<poly id="building-1_0-3_3" type="building" fill="1" layer="-1.0" color="128,128,128" shape="310.0,1127.5 372.5,1127.5 372.5,1190.0 310.0,1190.0 310.0,1127.5" height="30.155" />
	<poly id="building-1_1-3_0" type="building" fill="1" layer="-1.0" color="128,128,128" shape="382.5,910.0 445.0,910.0 445.0,972.5 382.5,972.5 382.5,910.0" height="32.287" />
	<poly id="building-1_1-3_1" type="building" fill="1" layer="-1.0" color="128,128,128" shape="382.5,982.5 445.0,982.5 445.0,1045.0 382.5,1045.0 382.5,982.5" height="15.925" />
	<poly id="building-1_1-3_2" type="building" fill="1" layer="-1.0" color="128,128,128" shape="382.5,1055.0 445.0,1055.0 445.0,1117.5 382.5,1117.5 382.5,1055.0" height="34.408" />
	<poly id="building-1_1-3_3" type="building" fill="1" layer="-1.0" color="128,128,128" shape="382.5,1127.5 445.0,1127.5 445.0,1190.0 382.5,1190.0 382.5,1127.5" height="17.000" />
	<poly id="building-1_2-3_0" type="building" fill="1" layer="-1.0" color="128,128,128" shape="455.0,910.0 517.5,910.0 517.5,972.5 455.0,972.5 455.0,910.0" height="49.125" />
	<poly id="building-1_2-3_1" type="building" fill="1" layer="-1.0" color="128,128,128" shape="455.0,982.5 517.5,982.5 517.5,1045.0 455.0,1045.0 455.0,982.5" height="45.266" />
	<poly id="building-1_2-3_2" type="building" fill="1" layer="-1.0" color="128,128,128" shape="455.0,1055.0 517.5,1055.0 517.5,1117.5 455.0,1117.5 455.0,1055.0" height="20.695" />
	<poly id="building-1_2-3_3" type="building" fill="1" layer="-1.0" color="128,128,128" shape="455.0,1127.5 517.5,1127.5 517.5,1190.0 455.0,1190.0 455.0,1127.5" height="19.407" />
	<poly id="building-1_3-3_0" type="building" fill="1" layer="-1.0" color="128,128,128" shape="527.5,910.0 590.0,910.0 590.0,972.5 527.5,972.5 527.5,910.0" height="10.244" />
	<poly id="building-1_3-3_1" type="building" fill="1" layer="-1.0" color="128,128,128" shape="527.5,982.5 590.0,982.5 590.0,1045.0 527.5,1045.0 527.5,982.5" height="19.944" />
	<poly id="building-1_3-3_2" type="building" fill="1" layer="-1.0" color="128,128,128" shape="527.5,1055.0 590.0,1055.0 590.0,1117.5 527.5,1117.5 527.5,1055.0" height="12.789" />
	<poly id="building-1_3-3_3" type="building" fill="1" layer="-1.0" color="128,128,128" shape="527.5,1127.5 590.0,1127.5 590.0,1190.0 527.5,1190.0 527.5,1127.5" height="24.760" />
	<poly id="building-2_0-0_0" type="building" fill="1" layer="-1.0" color="128,128,128" shape="610.0,10.0 672.5,10.0 672.5,72.5 610.0,72.5 610.0,10.0" height="28.035" />
	<poly id="building-2_0-0_1" type="building" fill="1" layer="-1.0" color="128,128,128" shape="610.0,82.5 672.5,82.5 672.5,145.0 610.0,145.0 610.0,82.5" height="48.682" />
	<poly id="building-2_0-0_2" type="building" fill="1" layer="-1.0" color="128,128,128" shape="610.0,155.0 672.5,155.0 672.5,217.5 610.0,217.5 610.0,155.0" height="31.505" />
	<poly id="building-2_0-0_3" type="building" fill="1" layer="-1.0" color="128,128,128" shape="610.0,227.5 672.5,227.5 672.5,290.0 610.0,290.0 610.0,227.5" height="26.689" />
	<poly id="building-2_1-0_0" type="building" fill="1" layer="-1.0" color="128,128,128" shape="682.5,10.0 745.0,10.0 745.0,72.5 682.5,72.5 682.5,10.0" height="20.978" />
	<poly id="building-2_1-0_1" type="building" fill="1" layer="-1.0" color="128,128,128" shape="682.5,82.5 745.0,82.5 745.0,145.0 682.5,145.0 682.5,82.5" height="14.515" />
	<poly id="building-2_1-0_2" type="building" fill="1" layer="-1.0" color="128,128,128" shape="682.5,155.0 745.0,155.0 745.0,217.5 682.5,217.5 682.5,155.0" height="16.391" />
	<poly id="building-2_1-0_3" type="building" fill="1" layer="-1.0" color="128,128,128" shape="682.5,227.5 745.0,227.5 745.0,290.0 682.5,290.0 682.5,227.5" height="31.378" />
	<poly id="building-2_2-0_0" type="building" fill="1" layer="-1.0" color="128,128,128" shape="755.0,10.0 817.5,10.0 817.5,72.5 755.0,72.5 755.0,10.0" height="16.371" />
	<poly id="building-2_2-0_1" type="building" fill="1" layer="-1.0" color="128,128,128" shape="755.0,82.5 817.5,82.5 817.5,145.0 755.0,145.0 755.0,82.5" height="40.738" />
	<poly id="building-2_2-0_2" type="building" fill="1" layer="-1.0" color="128,128,128" shape="755.0,155.0 817.5,155.0 817.5,217.5 755.0,217.5 755.0,155.0" height="34.873" />
	<poly id="building-2_2-0_3" type="building" fill="1" layer="-1.0" color="128,128,128" shape="755.0,227.5 817.5,227.5 817.5,290.0 755.0,290.0 755.0,227.5" height="36.679" />
	<poly id="building-2_3-0_0" type="building" fill="1" layer="-1.0" color="128,128,128" shape="827.5,10.0 890.0,10.0 890.0,72.5 827.5,72.5 827.5,10.0" height="11.763" />
	<poly id="building-2_3-0_1" type="building" fill="1" layer="-1.0" color="128,128,128" shape="827.5,82.5 890.0,82.5 890.0,145.0 827.5,145.0 827.5,82.5" height="22.215" />
	<poly id="building-2_3-0_2" type="building" fill="1" layer="-1.0" color="128,128,128" shape="827.5,155.0 890.0,155.0 890.0,217.5 827.5,217.5 827.5,155.0" height="18.896" />
	<poly id="building-2_3-0_3" type="building" fill="1" layer="-1.0" color="128,128,128" shape="827.5,227.5 890.0,227.5 890.0,290.0 827.5,290.0 827.5,227.5" height="48.268" />
	<poly id="building-2_0-1_0" type="building" fill="1" layer="-1.0" color="128,128,128" shape="610.0,310.0 672.5,310.0 672.5,372.5 610.0,372.5 610.0,310.0" height="27.490" />
	<poly id="building-2_0-1_1" type="building" fill="1" layer="-1.0" color="128,128,128" shape="610.0,382.5 672.5,382.5 672.5,445.0 610.0,445.0 610.0,382.5" height="11.338" />
	<poly id="building-2_0-1_2" type="building" fill="1" layer="-1.0" color="128,128,128" shape="610.0,455.0 672.5,455.0 672.5,517.5 610.0,517.5 610.0,455.0" height="11.188" />
	<poly id="building-2_0-1_3" type="building" fill="1" layer="-1.0" color="128,128,128" shape="610.0,527.5 672.5,527.5 672.5,590.0 610.0,590.0 610.0,527.5" height="36.038" />
	<poly id="building-2_1-1_0" type="building" fill="1" layer="-1.0" color="128,128,128" shape="682.5,310.0 745.0,310.0 745.0,372.5 682.5,372.5 682.5,310.0" height="31.864" />
	<poly id="building-2_1-1_1" type="building" fill="1" layer="-1.0" color="128,128,128" shape="682.5,382.5 745.0,382.5 745.0,445.0 682.5,445.0 682.5,382.5" height="44.584" />
	<poly id="building-2_1-1_2" type="building" fill="1" layer="-1.0" color="128,128,128" shape="682.5,455.0 745.0,455.0 745.0,517.5 682.5,517.5 682.5,455.0" height="27.792" />
	<poly id="building-2_1-1_3" type="building" fill="1" layer="-1.0" color="128,128,128" shape="682.5,527.5 745.0,527.5 745.0,590.0 682.5,590.0 682.5,527.5" height="26.887" />
	<poly id="building-2_2-1_0" type="building" fill="1" layer="-1.0" color="128,128,128" shape="755.0,310.0 817.5,310.0 817.5,372.5 755.0,372.5 755.0,310.0" height="28.573" />
	<poly id="building-2_2-1_1" type="building" fill="1" layer="-1.0" color="128,128,128" shape="755.0,382.5 817.5,382.5 817.5,445.0 755.0,445.0 755.0,382.5" height="24.171" />
	<poly id="building-2_2-1_2" type="building" fill="1" layer="-1.0" color="128,128,128" shape="755.0,455.0 817.5,455.0 817.5,517.5 755.0,517.5 755.0,455.0" height="13.204" />
	<poly id="building-2_2-1_3" type="building" fill="1" layer="-1.0" color="128,128,128" shape="755.0,527.5 817.5,527.5 817.5,590.0 755.0,590.0 755.0,527.5" height="28.196" />
	<poly id="building-2_3-1_0" type="building" fill="1" layer="-1.0" color="128,128,128" shape="827.5,310.0 890.0,310.0 890.0,372.5 827.5,372.5 827.5,310.0" height="28.682" />
	<poly id="building-2_3-1_1" type="building" fill="1" layer="-1.0" color="128,128,128" shape="827.5,382.5 890.0,382.5 890.0,445.0 827.5,445.0 827.5,382.5" height="27.802" />
	<poly id="building-2_3-1_2" type="building" fill="1" layer="-1.0" color="128,128,128" shape="827.5,455.0 890.0,455.0 890.0,517.5 827.5,517.5 827.5,455.0" height="39.494" />
	<poly id="building-2_3-1_3" type="building" fill="1" layer="-1.0" color="128,128,128" shape="827.5,527.5 890.0,527.5 890.0,590.0 827.5,590.0 827.5,527.5" height="40.795" />
	<poly id="building-2_0-2_0" type="building" fill="1" layer="-1.0" color="128,128,128" shape="610.0,610.0 672.5,610.0 672.5,672.5 610.0,672.5 610.0,610.0" height="19.129" />
	<poly id="building-2_0-2_1" type="building" fill="1" layer="-1.0" color="128,128,128" shape="610.0,682.5 672.5,682.5 672.5,745.0 610.0,745.0 610.0,682.5" height="24.837" />
	<poly id="building-2_0-2_2" type="building" fill="1" layer="-1.0" color="128,128,128" shape="610.0,755.0 672.5,755.0 672.5,817.5 610.0,817.5 610.0,755.0" height="37.910" />
	<poly id="building-2_0-2_3" type="building" fill="1" layer="-1.0" color="128,128,128" shape="610.0,827.5 672.5,827.5 672.5,890.0 610.0,890.0 610.0,827.5" height="24.435" />
	<poly id="building-2_1-2_0" type="building" fill="1" layer="-1.0" color="128,128,128" shape="682.5,610.0 745.0,610.0 745.0,672.5 682.5,672.5 682.5,610.0" height="23.280" />
	<poly id="building-2_1-2_1" type="building" fill="1" layer="-1.0" color="128,128,128" shape="682.5,682.5 745.0,682.5 745.0,745.0 682.5,745.0 682.5,682.5" height="43.461" />
	<poly id="building-2_1-2_2" type="building" fill="1" layer="-1.0" color="128,128,128" shape="682.5,755.0 745.0,755.0 745.0,817.5 682.5,817.5 682.5,755.0" height="12.410" />
	<poly id="building-2_1-2_3" type="building" fill="1" layer="-1.0" color="128,128,128" shape="682.5,827.5 745.0,827.5 745.0,890.0 682.5,890.0 682.5,827.5" height="26.877" />
	<poly id="building-2_2-2_0" type="building" fill="1" layer="-1.0" color="128,128,128" shape="755.0,610.0 817.5,610.0 817.5,672.5 755.0,672.5 755.0,610.0" height="21.147" />
	<poly id="building-2_2-2_1" type="building" fill="1" layer="-1.0" color="128,128,128" shape="755.0,682.5 817.5,682.5 817.5,745.0 755.0,745.0 755.0,682.5" height="13.036" />
	<poly id="building-2_2-2_2" type="building" fill="1" layer="-1.0" color="128,128,128" shape="755.0,755.0 817.5,755.0 817.5,817.5 755.0,817.5 755.0,755.0" height="39.500" />
	<poly id="building-2_2-2_3" type="building" fill="1" layer="-1.0" color="128,128,128" shape="755.0,827.5 817.5,827.5 817.5,890.0 755.0,890.0 755.0,827.5" height="46.457" />