<?xml version='1.0' encoding='us-ascii'?>
<additional xmlns:xsi="http://www.w3.org/2001/XMLSchema-instance" xsi:noNamespaceSchemaLocation="http://sumo.dlr.de/xsd/additional_file.xsd">
	<poly id="building-simple-0_0" type="building" fill="1" layer="-1.0" color="128,128,128" shape="25.0,25.0 475.0,25.0 475.0,475.0 25.0,475.0 25.0,25.0" />
	<poly id="building-simple-0_1" type="building" fill="1" layer="-1.0" color="128,128,128" shape="25.0,525.0 475.0,525.0 475.0,975.0 25.0,975.0 25.0,525.0" />
	<poly id="building-simple-1_0" type="building" fill="1" layer="-1.0" color="128,128,128" shape="525.0,25.0 975.0,25.0 975.0,475.0 525.0,475.0 525.0,25.0" />
	<poly id="building-simple-1_1" type="building" fill="1" layer="-1.0" color="128,128,128" shape="525.0,525.0 975.0,525.0 975.0,975.0 525.0,975.0 525.0,525.0" />
</additional>