<?xml version='1.0' encoding='us-ascii'?>
<additional xmlns:xsi="http://www.w3.org/2001/XMLSchema-instance" xsi:noNamespaceSchemaLocation="http://sumo.dlr.de/xsd/additional_file.xsd">
	<poly id="building-simple-0_0" type="building" fill="1" layer="-1.0" color="128,128,128" shape="5.0,5.0 95.0,5.0 95.0,95.0 5.0,95.0 5.0,5.0" />
	<poly id="building-simple-0_1" type="building" fill="1" layer="-1.0" color="128,128,128" shape="5.0,105.0 95.0,105.0 95.0,195.0 5.0,195.0 5.0,105.0" />
	<poly id="building-simple-0_2" type="building" fill="1" layer="-1.0" color="128,128,128" shape="5.0,205.0 95.0,205.0 95.0,295.0 5.0,295.0 5.0,205.0" />
	<poly id="building-simple-0_3" type="building" fill="1" layer="-1.0" color="128,128,128" shape="5.0,305.0 95.0,305.0 95.0,395.0 5.0,395.0 5.0,305.0" />
	<poly id="building-simple-0_4" type="building" fill="1" layer="-1.0" color="128,128,128" shape="5.0,405.0 95.0,405.0 95.0,495.0 5.0,495.0 5.0,405.0" />
	<poly id="building-simple-0_5" type="building" fill="1" layer="-1.0" color="128,128,128" shape="5.0,505.0 95.0,505.0 95.0,595.0 5.0,595.0 5.0,505.0" />
	<poly id="building-simple-1_0" type="building" fill="1" layer="-1.0" color="128,128,128" shape="105.0,5.0 195.0,5.0 195.0,95.0 105.0,95.0 105.0,5.0" />
	<poly id="building-simple-1_1" type="building" fill="1" layer="-1.0" color="128,128,128" shape="105.0,105.0 195.0,105.0 195.0,195.0 105.0,195.0 105.0,105.0" />
	<poly id="building-simple-1_2" type="building" fill="1" layer="-1.0" color="128,128,128" shape="105.0,205.0 195.0,205.0 195.0,295.0 105.0,295.0 105.0,205.0" />
	<poly id="building-simple-1_3" type="building" fill="1" layer="-1.0" color="128,128,128" shape="105.0,305.0 195.0,305.0 195.0,395.0 105.0,395.0 105.0,305.0" />
	<poly id="building-simple-1_4" type="building" fill="1" layer="-1.0" color="128,128,128" shape="105.0,405.0 195.0,405.0 195.0,495.0 105.0,495.0 105.0,405.0" />
	<poly id="building-simple-1_5" type="building" fill="1" layer="-1.0" color="128,128,128" shape="105.0,505.0 195.0,505.0 195.0,595.0 105.0,595.0 105.0,505.0" />
	<poly id="building-simple-2_0" type="building" fill="1" layer="-1.0" color="128,128,128" shape="205.0,5.0 295.0,5.0 295.0,95.0 205.0,95.0 205.0,5.0" />
	<poly id="building-simple-2_1" type="building" fill="1" layer="-1.0" color="128,128,128" shape="205.0,105.0 295.0,105.0 295.0,195.0 205.0,195.0 205.0,105.0" />
	<poly id="building-simple-2_2" type="building" fill="1" layer="-1.0" color="128,128,128" shape="205.0,205.0 295.0,205.0 295.0,295.0 205.0,295.0 205.0,205.0" />
	<poly id="building-simple-2_3" type="building" fill="1" layer="-1.0" color="128,128,128" shape="205.0,305.0 295.0,305.0 295.0,395.0 205.0,395.0 205.0,305.0" />
	<poly id="building-simple-2_4" type="building" fill="1" layer="-1.0" color="128,128,128" shape="205.0,405.0 295.0,405.0 295.0,495.0 205.0,495.0 205.0,405.0" />
	<poly id="building-simple-2_5" type="building" fill="1" layer="-1.0" color="128,128,128" shape="205.0,505.0 295.0,505.0 295.0,595.0 205.0,595.0 205.0,505.0" />
	<poly id="building-simple-3_0" type="building" fill="1" layer="-1.0" color="128,128,128" shape="305.0,5.0 395.0,5.0 395.0,95.0 305.0,95.0 305.0,5.0" />
	<poly id="building-simple-3_1" type="building" fill="1" layer="-1.0" color="128,128,128" shape="305.0,105.0 395.0,105.0 395.0,195.0 305.0,195.0 305.0,105.0" />
	<poly id="building-simple-3_2" type="building" fill="1" layer="-1.0" color="128,128,128" shape="305.0,205.0 395.0,205.0 395.0,295.0 305.0,295.0 305.0,205.0" />
	<poly id="building-simple-3_3" type="building" fill="1" layer="-1.0" color="128,128,128" shape="305.0,305.0 395.0,305.0 395.0,395.0 305.0,395.0 305.0,305.0" />
	<poly id="building-simple-3_4" type="building" fill="1" layer="-1.0" color="128,128,128" shape="305.0,405.0 395.0,405.0 395.0,495.0 305.0,495.0 305.0,405.0" />
	<poly id="building-simple-3_5" type="building" fill="1" layer="-1.0" color="128,128,128" shape="305.0,505.0 395.0,505.0 395.0,595.0 305.0,595.0 305.0,505.0" />
	<poly id="building-simple-4_0" type="building" fill="1" layer="-1.0" color="128,128,128" shape="405.0,5.0 495.0,5.0 495.0,95.0 405.0,95.0 405.0,5.0" />
	<poly id="building-simple-4_1" type="building" fill="1" layer="-1.0" color="128,128,128" shape="405.0,105.0 495.0,105.0 495.0,195.0 405.0,195.0 405.0,105.0" />
	<poly id="building-simple-4_2" type="building" fill="1" layer="-1.0" color="128,128,128" shape="405.0,205.0 495.0,205.0 495.0,295.0 405.0,295.0 405.0,205.0" />
	<poly id="building-simple-4_3" type="building" fill="1" layer="-1.0" color="128,128,128" shape="405.0,305.0 495.0,305.0 495.0,395.0 405.0,395.0 405.0,305.0" />
	<poly id="building-simple-4_4" type="building" fill="1" layer="-1.0" color="128,128,128" shape="405.0,405.0 495.0,405.0 495.0,495.0 405.0,495.0 405.0,405.0" />
	<poly id="building-simple-4_5" type="building" fill="1" layer="-1.0" color="128,128,128" shape="405.0,505.0 495.0,505.0 495.0,595.0 405.0,595.0 405.0,505.0" />
	<poly id="building-simple-5_0" type="building" fill="1" layer="-1.0" color="128,128,128" shape="505.0,5.0 595.0,5.0 595.0,95.0 505.0,95.0 505.0,5.0" />
	<poly id="building-simple-5_1" type="building" fill="1" layer="-1.0" color="128,128,128" shape="505.0,105.0 595.0,105.0 595.0,195.0 505.0,195.0 505.0,105.0" />
	<poly id="building-simple-5_2" type="building" fill="1" layer="-1.0" color="128,128,128" shape="505.0,205.0 595.0,205.0 595.0,295.0 505.0,295.0 505.0,205.0" />
	<poly id="building-simple-5_3" type="building" fill="1" layer="-1.0" color="128,128,128" shape="505.0,305.0 595.0,305.0 595.0,395.0 505.0,395.0 505.0,305.0" />
	<poly id="building-simple-5_4" type="building" fill="1" layer="-1.0" color="128,128,128" shape="505.0,405.0 595.0,405.0 595.0,495.0 505.0,495.0 505.0,405.0" />
	<poly id="building-simple-5_5" type="building" fill="1" layer="-1.0" color="128,128,128" shape="505.0,505.0 595.0,505.0 595.0,595.0 505.0,595.0 505.0,505.0" />
</additional>