<?xml version='1.0' encoding='us-ascii'?>
<additional xmlns:xsi="http://www.w3.org/2001/XMLSchema-instance" xsi:noNamespaceSchemaLocation="http://sumo.dlr.de/xsd/additional_file.xsd">
	<poly id="building-0_0-0_0" type="building" fill="1" layer="-1.0" color="128,128,128" shape="10.0,10.0 57.5,10.0 57.5,57.5 10.0,57.5 10.0,10.0" height="47.926" />
	<poly id="building-0_0-0_1" type="building" fill="1" layer="-1.0" color="128,128,128" shape="10.0,67.5 57.5,67.5 57.5,115.0 10.0,115.0 10.0,67.5" height="44.411" />
	<poly id="building-0_0-0_2" type="building" fill="1" layer="-1.0" color="128,128,128" shape="10.0,125.0 57.5,125.0 57.5,172.5 10.0,172.5 10.0,125.0" height="47.193" />
	<poly id="building-0_0-0_3" type="building" fill="1" layer="-1.0" color="128,128,128" shape="10.0,182.5 57.5,182.5 57.5,230.0 10.0,230.0 10.0,182.5" height="40.214" />
	<poly id="building-0_1-0_0" type="building" fill="1" layer="-1.0" color="128,128,128" shape="67.5,10.0 115.0,10.0 115.0,57.5 67.5,57.5 67.5,10.0" height="24.882" />
	<poly id="building-0_1-0_1" type="building" fill="1" layer="-1.0" color="128,128,128" shape="67.5,67.5 115.0,67.5 115.0,115.0 67.5,115.0 67.5,67.5" height="40.390" />
	<poly id="building-0_1-0_2" type="building" fill="1" layer="-1.0" color="128,128,128" shape="67.5,125.0 115.0,125.0 115.0,172.5 67.5,172.5 67.5,125.0" height="19.796" />
	<poly id="building-0_1-0_3" type="building" fill="1" layer="-1.0" color="128,128,128" shape="67.5,182.5 115.0,182.5 115.0,230.0 67.5,230.0 67.5,182.5" height="31.039" />
	<poly id="building-0_2-0_0" type="building" fill="1" layer="-1.0" color="128,128,128" shape="125.0,10.0 172.5,10.0 172.5,57.5 125.0,57.5 125.0,10.0" height="47.590" />
	<poly id="building-0_2-0_1" type="building" fill="1" layer="-1.0" color="128,128,128" shape="125.0,67.5 172.5,67.5 172.5,115.0 125.0,115.0 125.0,67.5" height="39.811" />
	<poly id="building-0_2-0_2" type="building" fill="1" layer="-1.0" color="128,128,128" shape="125.0,125.0 172.5,125.0 172.5,172.5 125.0,172.5 125.0,125.0" height="45.599" />
	<poly id="building-0_2-0_3" type="building" fill="1" layer="-1.0" color="128,128,128" shape="125.0,182.5 172.5,182.5 172.5,230.0 125.0,230.0 125.0,182.5" height="12.365" />
	<poly id="building-0_3-0_0" type="building" fill="1" layer="-1.0" color="128,128,128" shape="182.5,10.0 230.0,10.0 230.0,57.5 182.5,57.5 182.5,10.0" height="10.886" />
	<poly id="building-0_3-0_1" type="building" fill="1" layer="-1.0" color="128,128,128" shape="182.5,67.5 230.0,67.5 230.0,115.0 182.5,115.0 182.5,67.5" height="18.307" />
	<poly id="building-0_3-0_2" type="building" fill="1" layer="-1.0" color="128,128,128" shape="182.5,125.0 230.0,125.0 230.0,172.5 182.5,172.5 182.5,125.0" height="47.014" />
	<poly id="building-0_3-0_3" type="building" fill="1" layer="-1.0" color="128,128,128" shape="182.5,182.5 230.0,182.5 230.0,230.0 182.5,230.0 182.5,182.5" height="43.523" />
	<poly id="building-0_0-1_0" type="building" fill="1" layer="-1.0" color="128,128,128" shape="10.0,250.0 57.5,250.0 57.5,297.5 10.0,297.5 10.0,250.0" height="34.864" />
	<poly id="building-0_0-1_1" type="building" fill="1" layer="-1.0" color="128,128,128" shape="10.0,307.5 57.5,307.5 57.5,355.0 10.0,355.0 10.0,307.5" height="15.480" />
	<poly id="building-0_0-1_2" type="building" fill="1" layer="-1.0" color="128,128,128" shape="10.0,365.0 57.5,365.0 57.5,412.5 10.0,412.5 10.0,365.0" height="26.333" />
	<poly id="building-0_0-1_3" type="building" fill="1" layer="-1.0" color="128,128,128" shape="10.0,422.5 57.5,422.5 57.5,470.0 10.0,470.0 10.0,422.5" height="12.963" />
	<poly id="building-0_1-1_0" type="building" fill="1" layer="-1.0" color="128,128,128" shape="67.5,250.0 115.0,250.0 115.0,297.5 67.5,297.5 67.5,250.0" height="25.871" />
	<poly id="building-0_1-1_1" type="building" fill="1" layer="-1.0" color="128,128,128" shape="67.5,307.5 115.0,307.5 115.0,355.0 67.5,355.0 67.5,307.5" height="40.510" />
	<poly id="building-0_1-1_2" type="building" fill="1" layer="-1.0" color="128,128,128" shape="67.5,365.0 115.0,365.0 115.0,412.5 67.5,412.5 67.5,365.0" height="10.661" />
	<poly id="building-0_1-1_3" type="building" fill="1" layer="-1.0" color="128,128,128" shape="67.5,422.5 115.0,422.5 115.0,470.0 67.5,470.0 67.5,422.5" height="16.664" />
	<poly id="building-0_2-1_0" type="building" fill="1" layer="-1.0" color="128,128,128" shape="125.0,250.0 172.5,250.0 172.5,297.5 125.0,297.5 125.0,250.0" height="48.857" />
	<poly id="building-0_2-1_1" type="building" fill="1" layer="-1.0" color="128,128,128" shape="125.0,307.5 172.5,307.5 172.5,355.0 125.0,355.0 125.0,307.5" height="32.715" />
	<poly id="building-0_2-1_2" type="building" fill="1" layer="-1.0" color="128,128,128" shape="125.0,365.0 172.5,365.0 172.5,412.5 125.0,412.5 125.0,365.0" height="32.625" />
	<poly id="building-0_2-1_3" type="building" fill="1" layer="-1.0" color="128,128,128" shape="125.0,422.5 172.5,422.5 172.5,470.0 125.0,470.0 125.0,422.5" height="43.944" />
	<poly id="building-0_3-1_0" type="building" fill="1" layer="-1.0" color="128,128,128" shape="182.5,250.0 230.0,250.0 230.0,297.5 182.5,297.5 182.5,250.0" height="20.733" />
	<poly id="building-0_3-1_1" type="building" fill="1" layer="-1.0" color="128,128,128" shape="182.5,307.5 230.0,307.5 230.0,355.0 182.5,355.0 182.5,307.5" height="18.149" />
	<poly id="building-0_3-1_2" type="building" fill="1" layer="-1.0" color="128,128,128" shape="182.5,365.0 230.0,365.0 230.0,412.5 182.5,412.5 182.5,365.0" height="49.333" />
	<poly id="building-0_3-1_3" type="building" fill="1" layer="-1.0" color="128,128,128" shape="182.5,422.5 230.0,422.5 230.0,470.0 182.5,470.0 182.5,422.5" height="26.034" />
	<poly id="building-0_0-2_0" type="building" fill="1" layer="-1.0" color="128,128,128" shape="10.0,490.0 57.5,490.0 57.5,537.5 10.0,537.5 10.0,490.0" height="34.999" />
	<poly id="building-0_0-2_1" type="building" fill="1" layer="-1.0" color="128,128,128" shape="10.0,547.5 57.5,547.5 57.5,595.0 10.0,595.0 10.0,547.5" height="45.171" />
	<poly id="building-0_0-2_2" type="building" fill="1" layer="-1.0" color="128,128,128" shape="10.0,605.0 57.5,605.0 57.5,652.5 10.0,652.5 10.0,605.0" height="13.330" />
	<poly id="building-0_0-2_3" type="building" fill="1" layer="-1.0" color="128,128,128" shape="10.0,662.5 57.5,662.5 57.5,710.0 10.0,710.0 10.0,662.5" height="27.009" />
	<poly id="building-0_1-2_0" type="building" fill="1" layer="-1.0" color="128,128,128" shape="67.5,490.0 115.0,490.0 115.0,537.5 67.5,537.5 67.5,490.0" height="19.022" />
	<poly id="building-0_1-2_1" type="building" fill="1" layer="-1.0" color="128,128,128" shape="67.5,547.5 115.0,547.5 115.0,595.0 67.5,595.0 67.5,547.5" height="12.968" />
	<poly id="building-0_1-2_2" type="building" fill="1" layer="-1.0" color="128,128,128" shape="67.5,605.0 115.0,605.0 115.0,652.5 67.5,652.5 67.5,605.0" height="25.617" />
	<poly id="building-0_1-2_3" type="building" fill="1" layer="-1.0" color="128,128,128" shape="67.5,662.5 115.0,662.5 115.0,710.0 67.5,710.0 67.5,662.5" height="20.153" />
	<poly id="building-0_2-2_0" type="building" fill="1" layer="-1.0" color="128,128,128" shape="125.0,490.0 172.5,490.0 172.5,537.5 125.0,537.5 125.0,490.0" height="40.415" />
	<poly id="building-0_2-2_1" type="building" fill="1" layer="-1.0" color="128,128,128" shape="125.0,547.5 172.5,547.5 172.5,595.0 125.0,595.0 125.0,547.5" height="14.260" />
	<poly id="building-0_2-2_2" type="building" fill="1" layer="-1.0" color="128,128,128" shape="125.0,605.0 172.5,605.0 172.5,652.5 125.0,652.5 125.0,605.0" height="43.853" />
	<poly id="building-0_2-2_3" type="building" fill="1" layer="-1.0" color="128,128,128" shape="125.0,662.5 172.5,662.5 172.5,710.0 125.0,710.0 125.0,662.5" height="27.507" />
	<poly id="building-0_3-2_0" type="building" fill="1" layer="-1.0" color="128,128,128" shape="182.5,490.0 230.0,490.0 230.0,537.5 182.5,537.5 182.5,490.0" height="23.001" />
	<poly id="building-0_3-2_1" type="building" fill="1" layer="-1.0" color="128,128,128" shape="182.5,547.5 230.0,547.5 230.0,595.0 182.5,595.0 182.5,547.5" height="39.078" />
	<poly id="building-0_3-2_2" type="building" fill="1" layer="-1.0" color="128,128,128" shape="182.5,605.0 230.0,605.0 230.0,652.5 182.5,652.5 182.5,605.0" height="29.762" />
	<poly id="building-0_3-2_3" type="building" fill="1" layer="-1.0" color="128,128,128" shape="182.5,662.5 230.0,662.5 230.0,710.0 182.5,710.0 182.5,662.5" height="23.494" />
	<poly id="building-0_0-3_0" type="building" fill="1" layer="-1.0" color="128,128,128" shape="10.0,730.0 57.5,730.0 57.5,777.5 10.0,777.5 10.0,730.0" height="29.241" />
	<poly id="building-0_0-3_1" type="building" fill="1" layer="-1.0" color="128,128,128" shape="10.0,787.5 57.5,787.5 57.5,835.0 10.0,835.0 10.0,787.5" height="27.308" />
	<poly id="building-0_0-3_2" type="building" fill="1" layer="-1.0" color="128,128,128" shape="10.0,845.0 57.5,845.0 57.5,892.5 10.0,892.5 10.0,845.0" height="22.775" />
	<poly id="building-0_0-3_3" type="building" fill="1" layer="-1.0" color="128,128,128" shape="10.0,902.5 57.5,902.5 57.5,950.0 10.0,950.0 10.0,902.5" height="42.387" />
	<poly id="building-0_1-3_0" type="building" fill="1" layer="-1.0" color="128,128,128" shape="67.5,730.0 115.0,730.0 115.0,777.5 67.5,777.5 67.5,730.0" height="19.783" />
	<poly id="building-0_1-3_1" type="building" fill="1" layer="-1.0" color="128,128,128" shape="67.5,787.5 115.0,787.5 115.0,835.0 67.5,835.0 67.5,787.5" height="42.004" />
	<poly id="building-0_1-3_2" type="building" fill="1" layer="-1.0" color="128,128,128" shape="67.5,845.0 115.0,845.0 115.0,892.5 67.5,892.5 67.5,845.0" height="11.559" />
	<poly id="building-0_1-3_3" type="building" fill="1" layer="-1.0" color="128,128,128" shape="67.5,902.5 115.0,902.5 115.0,950.0 67.5,950.0 67.5,902.5" height="13.514" />
	<poly id="building-0_2-3_0" type="building" fill="1" layer="-1.0" color="128,128,128" shape="125.0,730.0 172.5,730.0 172.5,777.5 125.0,777.5 125.0,730.0" height="20.801" />
	<poly id="building-0_2-3_1" type="building" fill="1" layer="-1.0" color="128,128,128" shape="125.0,787.5 172.5,787.5 172.5,835.0 125.0,835.0 125.0,787.5" height="44.960" />
	<poly id="building-0_2-3_2" type="building" fill="1" layer="-1.0" color="128,128,128" shape="125.0,845.0 172.5,845.0 172.5,892.5 125.0,892.5 125.0,845.0" height="46.753" />
	<poly id="building-0_2-3_3" type="building" fill="1" layer="-1.0" color="128,128,128" shape="125.0,902.5 172.5,902.5 172.5,950.0 125.0,950.0 125.0,902.5" height="33.238" />
	<poly id="building-0_3-3_0" type="building" fill="1" layer="-1.0" color="128,128,128" shape="182.5,730.0 230.0,730.0 230.0,777.5 182.5,777.5 182.5,730.0" height="29.912" />
	<poly id="building-0_3-3_1" type="building" fill="1" layer="-1.0" color="128,128,128" shape="182.5,787.5 230.0,787.5 230.0,835.0 182.5,835.0 182.5,787.5" height="44.985" />
	<poly id="building-0_3-3_2" type="building" fill="1" layer="-1.0" color="128,128,128" shape="182.5,845.0 230.0,845.0 230.0,892.5 182.5,892.5 182.5,845.0" height="22.427" />
	<poly id="building-0_3-3_3" type="building" fill="1" layer="-1.0" color="128,128,128" shape="182.5,902.5 230.0,902.5 230.0,950.0 182.5,950.0 182.5,902.5" height="39.569" />
	<poly id="building-0_0-4_0" type="building" fill="1" layer="-1.0" color="128,128,128" shape="10.0,970.0 57.5,970.0 57.5,1017.5 10.0,1017.5 10.0,970.0" height="42.608" />
	<poly id="building-0_0-4_1" type="building" fill="1" layer="-1.0" color="128,128,128" shape="10.0,1027.5 57.5,1027.5 57.5,1075.0 10.0,1075.0 10.0,1027.5" height="39.804" />
	<poly id="building-0_0-4_2" type="building" fill="1" layer="-1.0" color="128,128,128" shape="10.0,1085.0 57.5,1085.0 57.5,1132.5 10.0,1132.5 10.0,1085.0" height="21.572" />
	<poly id="building-0_0-4_3" type="building" fill="1" layer="-1.0" color="128,128,128" shape="10.0,1142.5 57.5,1142.5 57.5,1190.0 10.0,1190.0 10.0,1142.5" height="14.092" />
	<poly id="building-0_1-4_0" type="building" fill="1" layer="-1.0" color="128,128,128" shape="67.5,970.0 115.0,970.0 115.0,1017.5 67.5,1017.5 67.5,970.0" height="35.129" />
	<poly id="building-0_1-4_1" type="building" fill="1" layer="-1.0" color="128,128,128" shape="67.5,1027.5 115.0,1027.5 115.0,1075.0 67.5,1075.0 67.5,1027.5" height="45.379" />
	<poly id="building-0_1-4_2" type="building" fill="1" layer="-1.0" color="128,128,128" shape="67.5,1085.0 115.0,1085.0 115.0,1132.5 67.5,1132.5 67.5,1085.0" height="49.847" />
	<poly id="building-0_1-4_3" type="building" fill="1" layer="-1.0" color="128,128,128" shape="67.5,1142.5 115.0,1142.5 115.0,1190.0 67.5,1190.0 67.5,1142.5" height="40.591" />
	<poly id="building-0_2-4_0" type="building" fill="1" layer="-1.0" color="128,128,128" shape="125.0,970.0 172.5,970.0 172.5,1017.5 125.0,1017.5 125.0,970.0" height="49.481" />
	<poly id="building-0_2-4_1" type="building" fill="1" layer="-1.0" color="128,128,128" shape="125.0,1027.5 172.5,1027.5 172.5,1075.0 125.0,1075.0 125.0,1027.5" height="40.122" />
	<poly id="building-0_2-4_2" type="building" fill="1" layer="-1.0" color="128,128,128" shape="125.0,1085.0 172.5,1085.0 172.5,1132.5 125.0,1132.5 125.0,1085.0" height="38.304" />
	<poly id="building-0_2-4_3" type="building" fill="1" layer="-1.0" color="128,128,128" shape="125.0,1142.5 172.5,1142.5 172.5,1190.0 125.0,1190.0 125.0,1142.5" height="31.337" />
	<poly id="building-0_3-4_0" type="building" fill="1" layer="-1.0" color="128,128,128" shape="182.5,970.0 230.0,970.0 230.0,1017.5 182.5,1017.5 182.5,970.0" height="39.393" />
	<poly id="building-0_3-4_1" type="building" fill="1" layer="-1.0" color="128,128,128" shape="182.5,1027.5 230.0,1027.5 230.0,1075.0 182.5,1075.0 182.5,1027.5" height="30.465" />
	<poly id="building-0_3-4_2" type="building" fill="1" layer="-1.0" color="128,128,128" shape="182.5,1085.0 230.0,1085.0 230.0,1132.5 182.5,1132.5 182.5,1085.0" height="46.342" />
	<poly id="building-0_3-4_3" type="building" fill="1" layer="-1.0" color="128,128,128" shape="182.5,1142.5 230.0,1142.5 230.0,1190.0 182.5,1190.0 182.5,1142.5" height="34.701" />
	<poly id="building-0_0-5_0" type="building" fill="1" layer="-1.0" color="128,128,128" shape="10.0,1210.0 57.5,1210.0 57.5,1257.5 10.0,1257.5 10.0,1210.0" height="21.661" />
	<poly id="building-0_0-5_1" type="building" fill="1" layer="-1.0" color="128,128,128" shape="10.0,1267.5 57.5,1267.5 57.5,1315.0 10.0,1315.0 10.0,1267.5" height="38.048" />
	<poly id="building-0_0-5_2" type="building" fill="1" layer="-1.0" color="128,128,128" shape="10.0,1325.0 57.5,1325.0 57.5,1372.5 10.0,1372.5 10.0,1325.0" height="15.330" />
	<poly id="building-0_0-5_3" type="building" fill="1" layer="-1.0" color="128,128,128" shape="10.0,1382.5 57.5,1382.5 57.5,1430.0 10.0,1430.0 10.0,1382.5" height="25.626" />
	<poly id="building-0_1-5_0" type="building" fill="1" layer="-1.0" color="128,128,128" shape="67.5,1210.0 115.0,1210.0 115.0,1257.5 67.5,1257.5 67.5,1210.0" height="15.539" />
	<poly id="building-0_1-5_1" type="building" fill="1" layer="-1.0" color="128,128,128" shape="67.5,1267.5 115.0,1267.5 115.0,1315.0 67.5,1315.0 67.5,1267.5" height="16.480" />
	<poly id="building-0_1-5_2" type="building" fill="1" layer="-1.0" color="128,128,128" shape="67.5,1325.0 115.0,1325.0 115.0,1372.5 67.5,1372.5 67.5,1325.0" height="30.099" />
	<poly id="building-0_1-5_3" type="building" fill="1" layer="-1.0" color="128,128,128" shape="67.5,1382.5 115.0,1382.5 115.0,1430.0 67.5,1430.0 67.5,1382.5" height="30.655" />
	<poly id="building-0_2-5_0" type="building" fill="1" layer="-1.0" color="128,128,128" shape="125.0,1210.0 172.5,1210.0 172.5,1257.5 125.0,1257.5 125.0,1210.0" height="33.870" />
	<poly id="building-0_2-5_1" type="building" fill="1" layer="-1.0" color="128,128,128" shape="125.0,1267.5 172.5,1267.5 172.5,1315.0 125.0,1315.0 125.0,1267.5" height="46.326" />
	<poly id="building-0_2-5_2" type="building" fill="1" layer="-1.0" color="128,128,128" shape="125.0,1325.0 172.5,1325.0 172.5,1372.5 125.0,1372.5 125.0,1325.0" height="26.598" />
	<poly id="building-0_2-5_3" type="building" fill="1" layer="-1.0" color="128,128,128" shape="125.0,1382.5 172.5,1382.5 172.5,1430.0 125.0,1430.0 125.0,1382.5" height="43.561" />
	<poly id="building-0_3-5_0" type="building" fill="1" layer="-1.0" color="128,128,128" shape="182.5,1210.0 230.0,1210.0 230.0,1257.5 182.5,1257.5 182.5,1210.0" height="33.887" />
	<poly id="building-0_3-5_1" type="building" fill="1" layer="-1.0" color="128,128,128" shape="182.5,1267.5 230.0,1267.5 230.0,1315.0 182.5,1315.0 182.5,1267.5" height="30.739" />
	<poly id="building-0_3-5_2" type="building" fill="1" layer="-1.0" color="128,128,128" shape="182.5,1325.0 230.0,1325.0 230.0,1372.5 182.5,1372.5 182.5,1325.0" height="15.079" />
	<poly id="building-0_3-5_3" type="building" fill="1" layer="-1.0" color="128,128,128" shape="182.5,1382.5 230.0,1382.5 230.0,1430.0 182.5,1430.0 182.5,1382.5" height="44.110" />
	<poly id="building-0_0-6_0" type="building" fill="1" layer="-1.0" color="128,128,128" shape="10.0,1450.0 57.5,1450.0 57.5,1497.5 10.0,1497.5 10.0,1450.0" height="37.250" />
	<poly id="building-0_0-6_1" type="building" fill="1" layer="-1.0" color="128,128,128" shape="10.0,1507.5 57.5,1507.5 57.5,1555.0 10.0,1555.0 10.0,1507.5" height="38.699" />
	<poly id="building-0_0-6_2" type="building" fill="1" layer="-1.0" color="128,128,128" shape="10.0,1565.0 57.5,1565.0 57.5,1612.5 10.0,1612.5 10.0,1565.0" height="30.494" />
	<poly id="building-0_0-6_3" type="building" fill="1" layer="-1.0" color="128,128,128" shape="10.0,1622.5 57.5,1622.5 57.5,1670.0 10.0,1670.0 10.0,1622.5" height="12.516" />
	<poly id="building-0_1-6_0" type="building" fill="1" layer="-1.0" color="128,128,128" shape="67.5,1450.0 115.0,1450.0 115.0,1497.5 67.5,1497.5 67.5,1450.0" height="11.135" />
	<poly id="building-0_1-6_1" type="building" fill="1" layer="-1.0" color="128,128,128" shape="67.5,1507.5 115.0,1507.5 115.0,1555.0 67.5,1555.0 67.5,1507.5" height="45.417" />
	<poly id="building-0_1-6_2" type="building" fill="1" layer="-1.0" color="128,128,128" shape="67.5,1565.0 115.0,1565.0 115.0,1612.5 67.5,1612.5 67.5,1565.0" height="47.486" />
	<poly id="building-0_1-6_3" type="building" fill="1" layer="-1.0" color="128,128,128" shape="67.5,1622.5 115.0,1622.5 115.0,1670.0 67.5,1670.0 67.5,1622.5" height="38.775" />
	<poly id="building-0_2-6_0" type="building" fill="1" layer="-1.0" color="128,128,128" shape="125.0,1450.0 172.5,1450.0 172.5,1497.5 125.0,1497.5 125.0,1450.0" height="33.212" />
	<poly id="building-0_2-6_1" type="building" fill="1" layer="-1.0" color="128,128,128" shape="125.0,1507.5 172.5,1507.5 172.5,1555.0 125.0,1555.0 125.0,1507.5" height="30.958" />
	<poly id="building-0_2-6_2" type="building" fill="1" layer="-1.0" color="128,128,128" shape="125.0,1565.0 172.5,1565.0 172.5,1612.5 125.0,1612.5 125.0,1565.0" height="49.700" />
	<poly id="building-0_2-6_3" type="building" fill="1" layer="-1.0" color="128,128,128" shape="125.0,1622.5 172.5,1622.5 172.5,1670.0 125.0,1670.0 125.0,1622.5" height="37.180" />
	<poly id="building-0_3-6_0" type="building" fill="1" layer="-1.0" color="128,128,128" shape="182.5,1450.0 230.0,1450.0 230.0,1497.5 182.5,1497.5 182.5,1450.0" height="42.324" />
	<poly id="building-0_3-6_1" type="building" fill="1" layer="-1.0" color="128,128,128" shape="182.5,1507.5 230.0,1507.5 230.0,1555.0 182.5,1555.0 182.5,1507.5" height="46.912" />
	<poly id="building-0_3-6_2" type="building" fill="1" layer="-1.0" color="128,128,128" shape="182.5,1565.0 230.0,1565.0 230.0,1612.5 182.5,1612.5 182.5,1565.0" height="34.762" />
	<poly id="building-0_3-6_3" type="building" fill="1" layer="-1.0" color="128,128,128" shape="182.5,1622.5 230.0,1622.5 230.0,1670.0 182.5,1670.0 182.5,1622.5" height="44.230" />
	<poly id="building-0_0-7_0" type="building" fill="1" layer="-1.0" color="128,128,128" shape="10.0,1690.0 57.5,1690.0 57.5,1737.5 10.0,1737.5 10.0,1690.0" height="14.762" />
	<poly id="building-0_0-7_1" type="building" fill="1" layer="-1.0" color="128,128,128" shape="10.0,1747.5 57.5,1747.5 57.5,1795.0 10.0,1795.0 10.0,1747.5" height="34.922" />
	<poly id="building-0_0-7_2" type="building" fill="1" layer="-1.0" color="128,128,128" shape="10.0,1805.0 57.5,1805.0 57.5,1852.5 10.0,1852.5 10.0,1805.0" height="36.619" />
	<poly id="building-0_0-7_3" type="building" fill="1" layer="-1.0" color="128,128,128" shape="10.0,1862.5 57.5,1862.5 57.5,1910.0 10.0,1910.0 10.0,1862.5" height="36.618" />
	<poly id="building-0_1-7_0" type="building" fill="1" layer="-1.0" color="128,128,128" shape="67.5,1690.0 115.0,1690.0 115.0,1737.5 67.5,1737.5 67.5,1690.0" height="29.509" />
	<poly id="building-0_1-7_1" type="building" fill="1" layer="-1.0" color="128,128,128" shape="67.5,1747.5 115.0,1747.5 115.0,1795.0 67.5,1795.0 67.5,1747.5" height="12.666" />
	<poly id="building-0_1-7_2" type="building" fill="1" layer="-1.0" color="128,128,128" shape="67.5,1805.0 115.0,1805.0 115.0,1852.5 67.5,1852.5 67.5,1805.0" height="37.716" />
	<poly id="building-0_1-7_3" type="building" fill="1" layer="-1.0" color="128,128,128" shape="67.5,1862.5 115.0,1862.5 115.0,1910.0 67.5,1910.0 67.5,1862.5" height="30.073" />
	<poly id="building-0_2-7_0" type="building" fill="1" layer="-1.0" color="128,128,128" shape="125.0,1690.0 172.5,1690.0 172.5,1737.5 125.0,1737.5 125.0,1690.0" height="32.221" />
	<poly id="building-0_2-7_1" type="building" fill="1" layer="-1.0" color="128,128,128" shape="125.0,1747.5 172.5,1747.5 172.5,1795.0 125.0,1795.0 125.0,1747.5" height="44.095" />
	<poly id="building-0_2-7_2" type="building" fill="1" layer="-1.0" color="128,128,128" shape="125.0,1805.0 172.5,1805.0 172.5,1852.5 125.0,1852.5 125.0,1805.0" height="31.435" />
	<poly id="building-0_2-7_3" type="building" fill="1" layer="-1.0" color="128,128,128" shape="125.0,1862.5 172.5,1862.5 172.5,1910.0 125.0,1910.0 125.0,1862.5" height="40.967" />
	<poly id="building-0_3-7_0" type="building" fill="1" layer="-1.0" color="128,128,128" shape="182.5,1690.0 230.0,1690.0 230.0,1737.5 182.5,1737.5 182.5,1690.0" height="47.425" />
	<poly id="building-0_3-7_1" type="building" fill="1" layer="-1.0" color="128,128,128" shape="182.5,1747.5 230.0,1747.5 230.0,1795.0 182.5,1795.0 182.5,1747.5" height="48.486" />
	<poly id="building-0_3-7_2" type="building" fill="1" layer="-1.0" color="128,128,128" shape="182.5,1805.0 230.0,1805.0 230.0,1852.5 182.5,1852.5 182.5,1805.0" height="17.150" />
	<poly id="building-0_3-7_3" type="building" fill="1" layer="-1.0" color="128,128,128" shape="182.5,1862.5 230.0,1862.5 230.0,1910.0 182.5,1910.0 182.5,1862.5" height="18.146" />
	<poly id="building-0_0-8_0" type="building" fill="1" layer="-1.0" color="128,128,128" shape="10.0,1930.0 57.5,1930.0 57.5,1977.5 10.0,1977.5 10.0,1930.0" height="42.579" />
	<poly id="building-0_0-8_1" type="building" fill="1" layer="-1.0" color="128,128,128" shape="10.0,1987.5 57.5,1987.5 57.5,2035.0 10.0,2035.0 10.0,1987.5" height="20.648" />
	<poly id="building-0_0-8_2" type="building" fill="1" layer="-1.0" color="128,128,128" shape="10.0,2045.0 57.5,2045.0 57.5,2092.5 10.0,2092.5 10.0,2045.0" height="39.876" />
	<poly id="building-0_0-8_3" type="building" fill="1" layer="-1.0" color="128,128,128" shape="10.0,2102.5 57.5,2102.5 57.5,2150.0 10.0,2150.0 10.0,2102.5" height="39.688" />
	<poly id="building-0_1-8_0" type="building" fill="1" layer="-1.0" color="128,128,128" shape="67.5,1930.0 115.0,1930.0 115.0,1977.5 67.5,1977.5 67.5,1930.0" height="33.928" />
	<poly id="building-0_1-8_1" type="building" fill="1" layer="-1.0" color="128,128,128" shape="67.5,1987.5 115.0,1987.5 115.0,2035.0 67.5,2035.0 67.5,1987.5" height="20.998" />
	<poly id="building-0_1-8_2" type="building" fill="1" layer="-1.0" color="128,128,128" shape="67.5,2045.0 115.0,2045.0 115.0,2092.5 67.5,2092.5 67.5,2045.0" height="32.914" />
	<poly id="building-0_1-8_3" type="building" fill="1" layer="-1.0" color="128,128,128" shape="67.5,2102.5 115.0,2102.5 115.0,2150.0 67.5,2150.0 67.5,2102.5" height="24.882" />
	<poly id="building-0_2-8_0" type="building" fill="1" layer="-1.0" color="128,128,128" shape="125.0,1930.0 172.5,1930.0 172.5,1977.5 125.0,1977.5 125.0,1930.0" height="32.398" />
	<poly id="building-0_2-8_1" type="building" fill="1" layer="-1.0" color="128,128,128" shape="125.0,1987.5 172.5,1987.5 172.5,2035.0 125.0,2035.0 125.0,1987.5" height="13.211" />
	<poly id="building-0_2-8_2" type="building" fill="1" layer="-1.0" color="128,128,128" shape="125.0,2045.0 172.5,2045.0 172.5,2092.5 125.0,2092.5 125.0,2045.0" height="43.904" />
	<poly id="building-0_2-8_3" type="building" fill="1" layer="-1.0" color="128,128,128" shape="125.0,2102.5 172.5,2102.5 172.5,2150.0 125.0,2150.0 125.0,2102.5" height="35.344" />
	<poly id="building-0_3-8_0" type="building" fill="1" layer="-1.0" color="128,128,128" shape="182.5,1930.0 230.0,1930.0 230.0,1977.5 182.5,1977.5 182.5,1930.0" height="23.584" />
	<poly id="building-0_3-8_1" type="building" fill="1" layer="-1.0" color="128,128,128" shape="182.5,1987.5 230.0,1987.5 230.0,2035.0 182.5,2035.0 182.5,1987.5" height="43.533" />
	<poly id="building-0_3-8_2" type="building" fill="1" layer="-1.0" color="128,128,128" shape="182.5,2045.0 230.0,2045.0 230.0,2092.5 182.5,2092.5 182.5,2045.0" height="24.581" />
	<poly id="building-0_3-8_3" type="building" fill="1" layer="-1.0" color="128,128,128" shape="182.5,2102.5 230.0,2102.5 230.0,2150.0 182.5,2150.0 182.5,2102.5" height="18.851" />
	<poly id="building-1_0-0_0" type="building" fill="1" layer="-1.0" color="128,128,128" shape="250.0,10.0 297.5,10.0 297.5,57.5 250.0,57.5 250.0,10.0" height="10.205" />
	<poly id="building-1_0-0_1" type="building" fill="1" layer="-1.0" color="128,128,128" shape="250.0,67.5 297.5,67.5 297.5,115.0 250.0,115.0 250.0,67.5" height="26.899" />
	<poly id="building-1_0-0_2" type="building" fill="1" layer="-1.0" color="128,128,128" shape="250.0,125.0 297.5,125.0 297.5,172.5 250.0,172.5 250.0,125.0" height="12.487" />
	<poly id="building-1_0-0_3" type="building" fill="1" layer="-1.0" color="128,128,128" shape="250.0,182.5 297.5,182.5 297.5,230.0 250.0,230.0 250.0,182.5" height="34.820" />
	<poly id="building-1_1-0_0" type="building" fill="1" layer="-1.0" color="128,128,128" shape="307.5,10.0 355.0,10.0 355.0,57.5 307.5,57.5 307.5,10.0" height="10.646" />
	<poly id="building-1_1-0_1" type="building" fill="1" layer="-1.0" color="128,128,128" shape="307.5,67.5 355.0,67.5 355.0,115.0 307.5,115.0 307.5,67.5" height="15.217" />
	<poly id="building-1_1-0_2" type="building" fill="1" layer="-1.0" color="128,128,128" shape="307.5,125.0 355.0,125.0 355.0,172.5 307.5,172.5 307.5,125.0" height="40.029" />
	<poly id="building-1_1-0_3" type="building" fill="1" layer="-1.0" color="128,128,128" shape="307.5,182.5 355.0,182.5 355.0,230.0 307.5,230.0 307.5,182.5" height="10.617" />
	<poly id="building-1_2-0_0" type="building" fill="1" layer="-1.0" color="128,128,128" shape="365.0,10.0 412.5,10.0 412.5,57.5 365.0,57.5 365.0,10.0" height="44.498" />
	<poly id="building-1_2-0_1" type="building" fill="1" layer="-1.0" color="128,128,128" shape="365.0,67.5 412.5,67.5 412.5,115.0 365.0,115.0 365.0,67.5" height="42.839" />
	<poly id="building-1_2-0_2" type="building" fill="1" layer="-1.0" color="128,128,128" shape="365.0,125.0 412.5,125.0 412.5,172.5 365.0,172.5 365.0,125.0" height="28.775" />
	<poly id="building-1_2-0_3" type="building" fill="1" layer="-1.0" color="128,128,128" shape="365.0,182.5 412.5,182.5 412.5,230.0 365.0,230.0 365.0,182.5" height="14.947" />
	<poly id="building-1_3-0_0" type="building" fill="1" layer="-1.0" color="128,128,128" shape="422.5,10.0 470.0,10.0 470.0,57.5 422.5,57.5 422.5,10.0" height="11.737" />
	<poly id="building-1_3-0_1" type="building" fill="1" layer="-1.0" color="128,128,128" shape="422.5,67.5 470.0,67.5 470.0,115.0 422.5,115.0 422.5,67.5" height="16.532" />
	<poly id="building-1_3-0_2" type="building" fill="1" layer="-1.0" color="128,128,128" shape="422.5,125.0 470.0,125.0 470.0,172.5 422.5,172.5 422.5,125.0" height="48.139" />
	<poly id="building-1_3-0_3" type="building" fill="1" layer="-1.0" color="128,128,128" shape="422.5,182.5 470.0,182.5 470.0,230.0 422.5,230.0 422.5,182.5" height="25.267" />
	<poly id="building-1_0-1_0" type="building" fill="1" layer="-1.0" color="128,128,128" shape="250.0,250.0 297.5,250.0 297.5,297.5 250.0,297.5 250.0,250.0" height="41.458" />
	<poly id="building-1_0-1_1" type="building" fill="1" layer="-1.0" color="128,128,128" shape="250.0,307.5 297.5,307.5 297.5,355.0 250.0,355.0 250.0,307.5" height="13.489" />
	<poly id="building-1_0-1_2" type="building" fill="1" layer="-1.0" color="128,128,128" shape="250.0,365.0 297.5,365.0 297.5,412.5 250.0,412.5 250.0,365.0" height="26.753" />
	<poly id="building-1_0-1_3" type="building" fill="1" layer="-1.0" color="128,128,128" shape="250.0,422.5 297.5,422.5 297.5,470.0 250.0,470.0 250.0,422.5" height="47.667" />
	<poly id="building-1_1-1_0" type="building" fill="1" layer="-1.0" color="128,128,128" shape="307.5,250.0 355.0,250.0 355.0,297.5 307.5,297.5 307.5,250.0" height="42.026" />
	<poly id="building-1_1-1_1" type="building" fill="1" layer="-1.0" color="128,128,128" shape="307.5,307.5 355.0,307.5 355.0,355.0 307.5,355.0 307.5,307.5" height="49.472" />
	<poly id="building-1_1-1_2" type="building" fill="1" layer="-1.0" color="128,128,128" shape="307.5,365.0 355.0,365.0 355.0,412.5 307.5,412.5 307.5,365.0" height="38.459" />
	<poly id="building-1_1-1_3" type="building" fill="1" layer="-1.0" color="128,128,128" shape="307.5,422.5 355.0,422.5 355.0,470.0 307.5,470.0 307.5,422.5" height="33.681" />
	<poly id="building-1_2-1_0" type="building" fill="1" layer="-1.0" color="128,128,128" shape="365.0,250.0 412.5,250.0 412.5,297.5 365.0,297.5 365.0,250.0" height="46.669" />
	<poly id="building-1_2-1_1" type="building" fill="1" layer="-1.0" color="128,128,128" shape="365.0,307.5 412.5,307.5 412.5,355.0 365.0,355.0 365.0,307.5" height="42.265" />
	<poly id="building-1_2-1_2" type="building" fill="1" layer="-1.0" color="128,128,128" shape="365.0,365.0 412.5,365.0 412.5,412.5 365.0,412.5 365.0,365.0" height="39.779" />