<routes xmlns:xsi="http://www.w3.org/2001/XMLSchema-instance" xsi:noNamespaceSchemaLocation="http://sumo.dlr.de/xsd/routes_file.xsd">
    <route edges="E4E3 E3E2 E2E1 E1E2 E2E3 E3F3 F3G3 G3H3 H3I3 I3J3 J3K3 K3J3 J3J4 J4J5 J5J6 J6J7 J7J8 J8J9 J9J10 J10J11 J11J12 J12K12 K12L12 L12M12 M12N12 N12N11 N11N10 N10N9 N9N8 N8N7 N7N6 N6N5 N5M5 M5L5 L5K5 K5J5 J5I5 I5H5 H5G5 G5F5 F5E5 E5D5 D5C5 C5B5 B5B6 B6B7 B7B8 B8B9 B9B10 B10B11 B11C11 C11D11 D11E11 E11F11 F11G11 G11H11 H11I11 I11J11 J11K11 K11K10 K10K9 K9J9 J9I9 I9H9 H9G9 G9F9 F9E9 E9D9 D9E9 E9E10 E10E11 E11F11 F11G11 G11H11 H11I11 I11J11 J11K11 K11L11 L11M11 M11N11 N11N10 N10N9 N9N8 N8N7 N7N6 N6N5 N5N4 N4M4 M4L4 L4K4 K4J4 J4I4 I4J4 J4I4 I4H4 H4G4 G4G5 G5G6 G6G7 G7G8 G8G9 G9G10 G10G11 G11G12 G12H12 H12I12 I12I11 I11I10 I10J10 J10I10 I10H10 H10G10 G10F10 F10F9 F9F8 F8F7 F7F6 F6F5 F5F4 F4F5 F5G5 G5H5 H5I5 I5J5 J5K5 K5L5 L5M5 M5N5 N5N6 N6N7 N7N8 N8N7 N7N6 N6N5 N5N4 N4N3 N3N2 N2N1 N1M1 M1L1 L1K1 K1J1 J1I1 I1H1 H1G1 G1F1 F1E1 E1D1 D1C1 C1C2 C2D2 D2E2 E2F2 F2F1 F1F0 F0E0 E0E1 E1E2 E2E3 E3E4 E4E5 E5E6 E6E7 E7E8 E8E9 E9E10 E10E11 E11F11 F11G11 G11H11 H11I11 I11H11 H11G11 G11F11 F11E11 E11E12 E12E13 E13E14 E14D14 D14C14 C14D14 D14E14 E14F14 F14G14 G14H14 H14I14 I14J14 J14K14 K14L14 L14M14 M14M13 M13M12 M12M11 M11M10 M10M9 M9M8 M8M7 M7M6 M6N6 N6N5 N5N4 N4N3 N3N2 N2N1 N1M1 M1L1 L1K1 K1J1 J1I1 I1H1 H1G1 G1F1 F1E1 E1D1 D1C1 C1B1 B1C1 C1D1 D1E1 E1E2 E2E3 E3E4 E4F4 F4G4 G4H4 H4H3 H3H2 H2G2 G2F2 F2E2 E2D2 D2C2 C2B2 B2A2 A2A3 A3B3 B3C3 C3D3 D3E3 E3E2 E2E1 E1E2 E2E3 E3E4 E4E5 E5E6 E6F6 F6G6 G6H6 H6I6 I6I7 I7I8 I8I9 I9I10 I10I11 I11I12 I12J12 J12K12 K12L12 L12M12 M12M11 M11L11 L11K11 K11J11 J11I11 I11H11 H11H10 H10H9 H9H8 H8H7 H7H6 H6H5 H5G5 G5F5 F5E5 E5D5 D5C5 C5B5 B5C5 C5D5 D5E5 E5F5 F5G5 G5H5 H5I5 I5J5 J5K5 K5L5 L5M5 M5M4 M4M3 M3M2 M2M1 M1M0 M0L0 L0K0 K0J0 J0I0 I0H0 H0G0 G0F0 F0E0 E0D0 D0C0 C0B0 B0B1 B1B2 B2B3 B3B4 B4B5 B5B6 B6B7 B7B8 B8B9 B9B10 B10B11 B11C11 C11D11 D11E11 E11F11 F11G11 G11H11 H11I11 I11J11 J11J12 J12J13 J13I13 I13H13 H13G13 G13F13 F13F14 F14F13 F13F12 F12E12 E12D12 D12E12 E12F12 F12F11 F11F10 F10F9 F9G9 G9H9 H9I9 I9J9 J9K9 K9K8 K8K7 K7K6 K6L6 L6M6 M6L6 L6K6 K6K7 K7K8 K8K9 K9K8 K8J8 J8I8 I8H8 H8H9 H9H8 H8H7 H7H6 H6I6 I6J6 J6J7 J7J6 J6J5 J5J4 J4J3 J3J2 J2I2 I2H2 H2G2 G2F2 F2E2 E2D2 D2C2 C2C3 C3C4 C4C5 C5C6 C6D6 D6E6 E6F6 F6F5 F5F6 F6F7 F7F8 F8G8 G8H8 H8I8 I8J8 J8K8 K8L8 L8L9 L9L10 L10L11 L11L12 L12L13 L13L14 L14L13 L13L12 L12L11 L11L10 L10L9 L9L8 L8L7 L7L6 L6L5 L5L4 L4K4 K4K3 K3K2 K2J2 J2I2 I2H2 H2G2 G2F2 F2E2 E2D2 D2C2 C2B2 B2A2 A2A1 A1A2 A2A3 A3A4 A4B4 B4C4 C4D4 D4E4 E4F4 F4G4 G4G5 G5G6 G6G7 G7G8 G8G9 G9G10 G10G11 G11G12 G12G13 G13G14 G14H14 H14I14 I14J14 J14K14 K14L14 L14M14 M14N14 N14O14 O14O13 O13O12 O12O11 O11O10 O10O9 O9O8 O8N8 N8M8 M8L8 L8K8 K8J8 J8J9 J9J10 J10J11 J11I11 I11H11 H11G11 G11F11 F11E11 E11E12 E12F12 F12G12 G12H12 H12I12 I12J12 J12K12 K12L12 L12M12 M12L12 L12K12 K12J12 J12I12 I12H12 H12G12 G12F12 F12E12 E12D12 D12C12 C12C11 C11C10 C10C9 C9C8 C8C7 C7C6 C6C5 C5C4 C4C3 C3C2 C2C1 C1C2 C2C3 C3C4 C4C5 C5C6 C6D6 D6E6 E6F6 F6G6 G6H6 H6I6 I6I5 I5I6 I6I7 I7J7 J7K7 K7L7 L7L8 L8L7 L7L6 L6L5 L5L4 L4L3 L3L2 L2K2 K2J2 J2I2 I2H2 H2G2 G2F2 F2E2 E2D2 D2C2 C2B2 B2A2 A2A3 A3A4 A4A5 A5A6 A6A7 A7A8 A8A9 A9A10 A10A11 A11A12 A12A13 A13A14 A14B14 B14C14 C14D14 D14E14 E14F14 F14G14 G14H14 H14I14 I14H14 H14I14 I14J14 J14J13 J13J12 J12J11 J11J10 J10J9 J9J8 J8J7 J7J6 J6J5 J5J4 J4J3 J3J2 J2J1 J1J0 J0J1 J1J2 J2J3 J3J4 J4J5 J5J6 J6J7 J7J8 J8J9 J9J10 J10J11 J11J12 J12I12 I12I13 I13I12 I12I11 I11I10 I10I9 I9I8 I8I7 I7I6 I6I5 I5I4 I4I3 I3I2 I2I1 I1I0 I0H0 H0G0 G0F0 F0E0 E0D0 D0E0 E0F0 F0G0 G0H0 H0I0 I0J0 J0K0 K0L0 L0M0 M0M1 M1M2 M2M3 M3M4 M4M5 M5M6 M6N6 N6N5 N5M5 M5L5 L5K5 K5J5 J5J6 J6J7 J7I7 I7H7 H7G7 G7F7 F7F8 F8F9 F9G9 G9H9 H9I9 I9J9 J9K9 K9L9 L9M9 M9N9 N9O9 O9O8 O8N8 N8M8 M8L8 L8K8 K8J8 J8I8 I8H8 H8G8 G8F8 F8E8 E8D8 D8C8 C8B8 B8C8 C8D8 D8E8 E8F8 F8G8 G8H8 H8H7 H7H6 H6H5 H5H4 H4H3 H3H4 H4I4 I4J4 J4K4 K4L4 L4M4 M4N4 N4N3 N3N4 N4N3 N3N2 N2N1 N1M1 M1M0 M0N0 N0M0 M0L0 L0K0 K0J0 J0I0 I0H0 H0H1 H1H2 H2H3 H3H4 H4H5 H5H6 H6H7 H7G7" id="route-ext-0" />
    <route edges="K10J10 J10K10 K10L10 L10M10 M10N10 N10O10 O10O9 O9O8 O8O7 O7O6 O6O5 O5O4 O4O5 O5O4 O4N4 N4M4 M4L4 L4K4 K4J4 J4I4 I4H4 H4G4 G4F4 F4E4 E4D4 D4D5 D5E5 E5F5 F5G5 G5H5 H5I5 I5J5 J5K5 K5L5 L5L4 L4L3 L3L2 L2L1 L1K1 K1K2 K2K3 K3K4 K4K5 K5K6 K6K7 K7K8 K8K9 K9K10 K10K11 K11K12 K12K13 K13K14 K14J14 J14I14 I14H14 H14G14 G14F14 F14E14 E14D14 D14C14 C14B14 B14A14 A14A13 A13A12 A12A11 A11A10 A10A9 A9A8 A8A7 A7A6 A6B6 B6C6 C6D6 D6E6 E6F6 F6G6 G6H6 H6I6 I6J6 J6K6 K6K7 K7L7 L7L6 L6L5 L5L4 L4L3 L3L2 L2K2 K2K3 K3K4 K4K5 K5K6 K6L6 L6M6 M6N6 N6N5 N5M5 M5L5 L5K5 K5J5 J5I5 I5H5 H5G5 G5F5 F5E5 E5D5 D5E5 E5E6 E6F6 F6F7 F7F8 F8F9 F9F10 F10F11 F11F12 F12F13 F13F12 F12F11 F11F10 F10G10 G10H10 H10I10 I10J10 J10K10 K10J10 J10I10 I10H10 H10G10 G10F10 F10F11 F11F12 F12F13 F13G13 G13H13 H13I13 I13J13 J13J12 J12J11 J11J10 J10J9 J9J8 J8J7 J7J6 J6J5 J5J4 J4J3 J3J2 J2K2 K2L2 L2K2 K2J2 J2I2 I2H2 H2G2 G2F2 F2E2 E2D2 D2C2 C2C3 C3C4 C4C5 C5C6 C6C7 C7C8 C8C9 C9C10 C10C11 C11C10 C10C9 C9C8 C8C7 C7C6 C6C5 C5C4 C4C3 C3C2 C2D2 D2E2 E2F2 F2G2 G2H2 H2I2 I2J2 J2K2 K2L2 L2K2 K2J2 J2I2 I2I3 I3I4 I4J4 J4J5 J5J6 J6J7 J7J8 J8J9 J9J10 J10K10 K10L10 L10L9 L9K9 K9J9 J9I9 I9H9 H9G9 G9G10 G10G11 G11G12 G12G11 G11G10 G10G9 G9G8 G8G7 G7G6 G6G5 G5F5 F5E5 E5E4 E4E3 E3E2 E2E1 E1D1 D1E1 E1F1 F1F2 F2F3 F3F4 F4F5 F5F6 F6F7 F7F8 F8F9 F9F10 F10F11 F11F12 F12F13 F13G13 G13H13 H13I13 I13J13 J13J12 J12J11 J11J10 J10J9 J9J8 J8J9 J9J8 J8J7 J7J6 J6J5 J5J4 J4J3 J3J2 J2I2 I2I1 I1I2 I2I3 I3I4 I4I5 I5I6 I6I7 I7I8 I8I9 I9I10 I10I11 I11I12 I12J12 J12K12 K12L12 L12M12 M12N12 N12O12 O12O11 O11N11 N11M11 M11L11 L11K11 K11J11 J11I11 I11H11 H11G11 G11F11 F11F12 F12F11 F11F10 F10F9 F9E9 E9D9 D9C9 C9B9 B9C9 C9D9 D9E9 E9F9 F9G9 G9H9 H9I9 I9J9 J9K9 K9L9 L9M9 M9N9 N9O9 O9O8 O8O7 O7O6 O6O5 O5O4 O4N4 N4M4 M4L4 L4K4 K4J4 J4I4 I4H4 H4G4 G4F4 F4E4 E4D4 D4C4 C4B4 B4B5 B5B6 B6B7 B7B8 B8B9 B9B10 B10B11 B11B12 B12B13 B13C13 C13D13 D13E13 E13F13 F13F12 F12F11 F11F10 F10F9 F9G9 G9H9 H9I9 I9J9 J9K9 K9L9 L9L10 L10M10 M10L10 L10K10 K10J10 J10I10 I10H10 H10G10 G10F10 F10F11 F11F12 F12F13 F13F12 F12F13 F13F14 F14G14 G14H14 H14G14 G14F14 F14E14 E14D14 D14C14 C14B14 B14A14 A14A13 A13A12 A12A11 A11A10 A10A9 A9A8 A8A7 A7A6 A6A5 A5B5 B5C5 C5D5 D5E5 E5F5 F5G5 G5H5 H5I5 I5J5 J5J4 J4I4 I4H4 H4H5 H5H6 H6H7 H7H8 H8H9 H9H10 H10H11 H11H12 H12I12 I12J12 J12K12 K12L12 L12L13 L13L12 L12L11 L11L10 L10L9 L9L8 L8L7 L7L6 L6L5 L5L4 L4K4 K4J4 J4I4 I4H4 H4H5 H5G5 G5F5 F5E5 E5D5 D5C5 C5D5 D5E5 E5F5 F5G5 G5H5 H5I5 I5J5 J5K5 K5L5 L5L6 L6L7 L7L8 L8L9 L9L8 L8L7 L7L6 L6L5 L5L4 L4L3 L3K3 K3J3 J3I3 I3H3 H3G3 G3F3 F3E3 E3D3 D3C3 C3B3 B3C3 C3D3 D3E3 E3E4 E4E5 E5E6 E6E7 E7E8 E8E9 E9E10 E10E11 E11F11 F11G11 G11H11 H11I11 I11J11 J11K11 K11L11 L11M11 M11L11 L11K11 K11J11 J11J10 J10J9 J9J8 J8I8 I8H8 H8G8 G8F8 F8E8 E8D8 D8C8 C8B8 B8B9 B9B10 B10C10 C10D10 D10C10 C10C11 C11C12 C12C13 C13D13 D13E13 E13F13 F13G13 G13H13 H13I13 I13I12 I12I11 I11I10 I10I9 I9I10 I10I11 I11I12 I12I13 I13I14 I14H14 H14G14 G14F14 F14E14 E14F14 F14G14 G14H14 H14I14 I14J14 J14K14 K14L14 L14L13 L13L12 L12L13 L13L12 L12L11 L11L10 L10L9 L9L8 L8L7 L7L6 L6L5 L5L4 L4L3 L3L2 L2L1 L1L0 L0L1 L1L2 L2L3 L3L4 L4L5 L5L6 L6L7 L7L8 L8L9 L9L10 L10L11 L11L12 L12L13 L13M13 M13L13 L13L12 L12L11 L11L10 L10L9 L9L8 L8L7 L7L6 L6L5 L5L4 L4K4 K4J4 J4I4 I4H4 H4G4 G4F4 F4E4 E4D4 D4C4 C4D4 D4E4 E4F4 F4G4 G4H4 H4I4 I4J4 J4K4 K4K3 K3K2 K2K1 K1K2 K2K3 K3K4 K4K5 K5K6 K6K7 K7J7 J7I7 I7H7 H7G7 G7F7 F7E7 E7D7 D7C7 C7B7 B7B6 B6B7 B7B8 B8B9 B9C9 C9D9 D9E9 E9F9 F9G9 G9H9 H9I9 I9I8 I8I7 I7I6 I6I5 I5I4 I4I3 I3I2 I2I1 I1H1 H1G1 G1F1 F1E1 E1D1 D1C1 C1C2 C2C3 C3C4 C4C5 C5C6 C6C7 C7C8 C8C9 C9C10 C10C11 C11C12 C12C13 C13D13 D13E13 E13F13 F13G13 G13H13 H13I13 I13J13 J13K13 K13L13 L13M13 M13N13 N13N12 N12N11 N11N10 N10N9 N9N8 N8N7 N7M7 M7L7 L7K7 K7J7 J7I7 I7H7 H7G7 G7F7 F7F8 F8F9 F9E9 E9D9 D9C9 C9B9 B9C9 C9D9 D9E9 E9F9 F9F8 F8F7 F7F6 F6F5 F5F6 F6F7 F7F8 F8F9 F9E9 E9D9 D9E9 E9F9 F9G9 G9H9 H9I9 I9J9 J9J8 J8J7 J7J6 J6J5 J5J4 J4J3 J3J2 J2J1 J1J2 J2J3 J3J4 J4J5 J5I5 I5H5 H5G5 G5G4 G4G5 G5G6 G6G7 G7G8 G8G9 G9H9 H9I9 I9J9 J9K9 K9L9 L9L10 L10L11 L11L12 L12L11 L11L10 L10L9 L9L8 L8L7 L7L6 L6L5 L5L4 L4L3 L3K3 K3L3 L3K3 K3J3 J3I3 I3H3 H3G3 G3F3 F3E3 E3D3 D3C3 C3B3 B3B4 B4B5 B5B6 B6B7 B7B8 B8B9 B9B10 B10B11 B11B12 B12B13 B13A13 A13B13 B13C13 C13D13 D13E13 E13F13 F13F12 F12F11 F11F10 F10F9 F9F8 F8F9" id="route-ext-1" />
    <route edges="I3I4 I4I5 I5J5 J5K5 K5J5 J5J6 J6J7 J7J8 J8J9 J9J10 J10J11 J11J12 J12J13 J13J14 J14I14 I14H14 H14G14 G14F14 F14E14 E14D14 D14E14 E14F14 F14G14 G14H14 H14I14 I14H14 H14I14 I14J14 J14K14 K14K13 K13K12 K12K11 K11K10 K10K9 K9K8 K8K7 K7K6 K6K5 K5K6 K6L6 L6M6 M6M5 M5M4 M4M5 M5M6 M6M7 M7L7 L7K7 K7J7 J7I7 I7H7 H7G7 G7F7 F7G7 G7G6 G6G5 G5G4 G4G3 G3G2 G2F2 F2E2 E2D2 D2C2 C2D2 D2E2 E2F2 F2F3 F3G3 G3H3 H3I3 I3J3 J3K3 K3L3 L3M3 M3M4 M4M5 M5M6 M6M7 M7M8 M8M9 M9N9 N9O9 O9O8 O8N8 N8M8 M8L8 L8K8 K8K9 K9K10 K10J10 J10I10 I10H10 H10G10 G10F10 F10E10 E10D10 D10D9 D9D8 D8D7 D7D6 D6D5 D5D4 D4D3 D3D2 D2C2 C2B2 B2B3 B3B4 B4B5 B5B6 B6C6 C6D6 D6E6 E6F6 F6G6 G6H6 H6I6 I6J6 J6J5 J5J6 J6J7 J7J8 J8J9 J9J10 J10K10 K10L10 L10M10 M10N10 N10O10 O10O11 O11O12 O12O13 O13O12 O12O11 O11O10 O10O9 O9O8 O8O7 O7O6 O6N6 N6M6 M6L6 L6K6 K6J6 J6I6 I6H6 H6G6 G6F6 F6E6 E6E7 E7E8 E8F8 F8F7 F7F6 F6F5 F5F4 F4F3 F3F2 F2F1 F1F0 F0G0 G0H0 H0I0 I0I1 I1I2 I2I3 I3I4 I4J4 J4J3 J3J2 J2J1 J1I1 I1H1 H1G1 G1F1 F1E1 E1E2 E2E3 E3E4 E4E5 E5E6 E6E7 E7F7 F7F8 F8G8 G8G7 G7G6 G6F6 F6E6 E6D6 D6D7 D7D8 D8D9 D9D10 D10D11 D11D12 D12D13 D13D14 D14E14 E14F14 F14G14 G14H14 H14I14 I14J14 J14K14 K14L14 L14M14 M14M13 M13M12 M12M11 M11M10 M10M9 M9M8 M8M7 M7M6 M6M5 M5M4 M4M3 M3M2 M2M1 M1M0 M0L0 L0K0 K0J0 J0I0 I0H0 H0G0 G0F0 F0E0 E0D0 D0C0 C0B0 B0B1 B1B2 B2B3 B3B4 B4B5 B5B6 B6B7 B7B8 B8B9 B9B10 B10A10 A10B10 B10C10 C10D10 D10E10 E10F10 F10G10 G10H10 H10I10 I10J10 J10J9 J9J8 J8J7 J7J6 J6J5 J5J4 J4J3 J3J2 J2J1 J1J2 J2J3 J3J4 J4J5 J5J6 J6J7 J7J8 J8I8 I8H8 H8G8 G8F8 F8E8 E8D8 D8D9 D9D10 D10D11 D11D12 D12E12 E12F12 F12G12 G12H12 H12I12 I12J12 J12K12 K12L12 L12M12 M12M11 M11M10 M10M9 M9M8 M8M7 M7M6 M6M5 M5L5 L5K5 K5J5 J5I5 I5I4 I4I3 I3I2 I2I1 I1H1 H1G1 G1F1 F1E1 E1E2 E2E3 E3E4 E4E5 E5E6 E6E7 E7E8 E8F8 F8G8 G8H8 H8I8 I8J8 J8K8 K8K7 K7K6 K6J6 J6K6 K6L6 L6M6 M6N6 N6O6 O6O5 O5N5 N5N6 N6N7 N7N8 N8N9 N9M9 M9L9 L9K9 K9J9 J9I9 I9H9 H9G9 G9G8 G8G7 G7G6 G6G5 G5F5 F5E5 E5D5 D5E5 E5D5 D5D6 D6D7 D7D6 D6D5 D5D4 D4D3 D3D2 D2E2 E2F2 F2G2 G2H2 H2I2 I2J2 J2K2 K2J2 J2I2 I2H2 H2G2 G2F2 F2E2 E2D2 D2C2 C2B2 B2B3 B3B4 B4B5 B5C5 C5D5 D5E5 E5F5 F5F4 F4G4 G4H4 H4I4 I4J4 J4K4 K4K3 K3J3 J3I3 I3H3 H3G3 G3F3 F3E3 E3D3 D3C3 C3C4 C4C5 C5C6 C6C7 C7C8 C8C9 C9C10 C10C11 C11C12 C12D12 D12E12 E12F12 F12G12 G12H12 H12I12 I12J12 J12K12 K12L12 L12M12 M12N12 N12N13 N13N12 N12N11 N11N10 N10N9 N9N8 N8N7 N7M7 M7L7 L7K7 K7J7 J7I7 I7H7 H7G7 G7F7 F7E7 E7D7 D7C7 C7B7 B7C7 C7D7 D7E7 E7F7 F7G7 G7H7 H7I7 I7J7 J7K7 K7L7 L7M7 M7M6 M6M5 M5M4 M4M3 M3M2 M2M1 M1L1 L1K1 K1J1 J1I1 I1H1 H1G1 G1F1 F1E1 E1D1 D1D2 D2D3 D3D4 D4D5 D5D6 D6D7 D7D8 D8E8 E8F8 F8G8 G8H8 H8H7 H7H6 H6H5 H5G5 G5H5 H5I5 I5J5 J5J6 J6J7 J7J8 J8J9 J9J10 J10J11 J11J12 J12K12 K12L12 L12M12 M12N12 N12M12 M12L12 L12K12 K12J12 J12I12 I12H12 H12G12 G12F12 F12E12 E12D12 D12E12 E12F12 F12G12 G12H12 H12I12 I12J12 J12K12 K12K11 K11K12 K12K11 K11J11 J11I11 I11H11 H11G11 G11F11 F11E11 E11E10 E10E9 E9E8 E8E7 E7E6 E6D6 D6C6 C6C5 C5B5 B5B6 B6B7 B7B8 B8B9 B9B10 B10A10 A10A9 A9A8 A8A7 A7A6 A6A5 A5A4 A4A3 A3A2 A2A1 A1A0 A0B0 B0C0 C0D0 D0E0 E0F0 F0G0 G0H0 H0I0 I0J0 J0K0 K0L0 L0M0 M0L0 L0K0 K0J0 J0I0 I0H0 H0H1 H1H2 H2H3 H3H4 H4H5 H5H6 H6H5 H5H4 H4H3 H3H2 H2H1 H1H0 H0G0 G0F0 F0E0 E0D0 D0C0 C0B0 B0B1 B1B2 B2B3 B3B4 B4B5 B5B6 B6B7 B7B8 B8C8 C8D8 D8E8 E8F8 F8G8 G8H8 H8H9 H9H10 H10H9 H9H8 H8G8 G8G9 G9H9 H9I9 I9J9 J9K9 K9K8 K8K7 K7K6 K6L6 L6M6 M6N6 N6M6 M6L6 L6K6 K6J6 J6I6 I6H6 H6G6 G6F6 F6E6 E6D6 D6C6 C6C7 C7C8 C8C9 C9C10 C10D10 D10C10 C10B10 B10C10 C10D10 D10E10 E10F10 F10G10 G10H10 H10I10 I10J10 J10K10 K10L10 L10M10 M10M9 M9M8 M8M7 M7M6 M6M5 M5M4 M4M3 M3L3 L3M3 M3M2 M2M3 M3M2 M2L2 L2K2 K2J2 J2I2 I2I3 I3J3 J3J2" id="route-ext-2" />
    <route edges="E12F12 F12F11 F11F10 F10F9 F9F8 F8F7 F7F6 F6E6 E6D6 D6C6 C6B6 B6B7 B7B8 B8B9 B9B10 B10B11 B11B12 B12B13 B13C13 C13D13 D13E13 E13F13 F13G13 G13H13 H13I13 I13J13 J13K13 K13L13 L13M13 M13N13 N13O13 O13O12 O12O11 O11O10 O10O9 O9O8 O8O7 O7O6 O6O5 O5O4 O4O3 O3O2 O2O1 O1O2 O2O3 O3N3 N3M3 M3L3 L3K3 K3J3 J3I3 I3H3 H3G3 G3F3 F3F2 F2F3 F3F4 F4F5 F5F6 F6F7 F7G7 G7H7 H7I7 I7J7 J7K7 K7L7 L7M7 M7N7 N7N6 N6N5 N5N4 N4M4 M4L4 L4K4 K4J4 J4I4 I4H4 H4G4 G4G3 G3G4 G4G5 G5G6 G6G7 G7G8 G8G9 G9G10 G10G11 G11G12 G12H12 H12I12 I12J12 J12K12 K12L12 L12M12 M12M11 M11M10 M10M9 M9M8 M8M7 M7M6 M6M5 M5M4 M4L4 L4K4 K4L4 L4K4 K4K3 K3K2 K2J2 J2I2 I2H2 H2G2 G2F2 F2E2 E2E3 E3E4 E4E5 E5E6 E6E7 E7E6 E6E5 E5E4 E4E3 E3F3 F3G3 G3H3 H3I3 I3I2 I2H2 H2G2 G2F2 F2F3 F3F4 F4F5 F5F6 F6F7 F7F8 F8G8 G8H8 H8I8 I8H8 H8H9 H9H10 H10I10 I10I11 I11I12 I12J12 J12I12 I12H12 H12G12 G12G11 G11F11 F11E11 E11D11 D11E11 E11F11 F11G11 G11H11 H11I11 I11J11 J11J10 J10J9 J9J8 J8J7 J7J6 J6J5 J5J4 J4J3 J3I3 I3H3 H3G3 G3F3 F3E3 E3D3 D3C3 C3C4 C4C5 C5C6 C6C7 C7C8 C8D8 D8D7 D7D6 D6D5 D5D4 D4D3 D3D4 D4D5 D5D6 D6D7 D7D8 D8D9 D9D10 D10D11 D11E11 E11F11 F11G11 G11H11 H11G11 G11F11 F11E11 E11E10 E10E9 E9E8 E8E7 E7E6 E6E5 E5D5 D5C5 C5B5 B5C5 C5C4 C4C3 C3C4 C4C5 C5C6 C6C7 C7C8 C8C9 C9B9 B9B10 B10C10 C10C9 C9C8 C8C7 C7C6 C6B6 B6C6 C6D6 D6E6 E6F6 F6G6 G6H6 H6I6 I6J6 J6K6 K6L6 L6M6 M6M5 M5L5 L5K5 K5J5 J5I5 I5H5 H5G5 G5F5 F5E5 E5E6 E6E7 E7E8 E8E9 E9E10 E10E11 E11E12 E12E13 E13E14 E14F14 F14G14 G14H14 H14I14 I14J14 J14K14 K14L14 L14K14 K14J14 J14I14 I14H14 H14G14 G14F14 F14E14 E14D14 D14C14 C14D14 D14E14 E14F14 F14G14 G14H14 H14I14 I14J14 J14K14 K14K13 K13K12 K12K11 K11K10 K10K9 K9K8 K8K7 K7K6 K6K5 K5K4 K4J4 J4K4 K4L4 L4M4 M4N4 N4N5 N5N6 N6N7 N7N8 N8N9 N9N10 N10N11 N11M11 M11L11 L11M11 M11N11 N11N10 N10N9 N9N8 N8N7 N7N6 N6N5 N5N4 N4N3 N3N2 N2N1 N1N0 N0N1 N1N2 N2N3 N3N4 N4N5 N5N6 N6N7 N7N8 N8N9 N9N10 N10N11 N11N12 N12N13 N13N14 N14M14 M14L14 L14K14 K14J14 J14I14 I14J14 J14J13 J13J12 J12J11 J11J10 J10J9 J9J8 J8J7 J7J6 J6J5 J5J6 J6K6 K6L6 L6M6 M6N6 N6N7 N7N6 N6M6 M6L6 L6K6 K6J6 J6I6 I6H6 H6G6 G6F6 F6E6 E6D6 D6C6 C6D6 D6E6 E6F6 F6G6 G6H6 H6I6 I6J6 J6K6 K6K5 K5K4 K4K3 K3K2 K2K1 K1K0 K0K1 K1K2 K2K3 K3K4 K4K5 K5K6 K6K7 K7K8 K8K9 K9K10 K10K11 K11K12 K12K13 K13K14 K14L14 L14M14 M14N14 N14O14 O14O13 O13O12 O12N12 N12M12 M12L12 L12K12 K12J12 J12I12 I12H12 H12G12 G12F12 F12E12 E12D12 D12C12 C12C11 C11C10 C10C9 C9C8 C8C7 C7C6 C6C5 C5C4 C4C3 C3C2 C2C1 C1C0 C0D0 D0E0 E0F0 F0G0 G0H0 H0I0 I0J0 J0I0 I0H0 H0G0 G0F0 F0E0 E0D0 D0C0 C0B0 B0A0 A0A1 A1A2 A2B2 B2B1 B1B0 B0C0 C0D0 D0E0 E0F0 F0F1 F1F2 F2F3 F3F4 F4F5 F5G5 G5G4 G4G5 G5H5 H5I5 I5J5 J5K5 K5L5 L5K5 K5J5 J5I5 I5I4 I4I3 I3I2 I2I1 I1H1 H1G1 G1F1 F1E1 E1D1 D1C1 C1C2 C2C3 C3C4 C4C5 C5C6 C6C7 C7D7 D7E7 E7F7 F7G7 G7H7 H7I7 I7J7 J7K7 K7L7 L7M7 M7N7 N7M7 M7L7 L7K7 K7J7 J7I7 I7H7 H7G7 G7F7 F7F8 F8F9 F9F8 F8F9 F9F10 F10F11 F11F12 F12F13 F13G13 G13G12 G12G11 G11G10 G10G9 G9F9 F9E9 E9D9 D9C9 C9B9 B9A9 A9B9 B9C9 C9D9 D9D8 D8D7 D7D6 D6D5 D5D4 D4D3 D3D2 D2D1 D1D0 D0C0 C0D0 D0E0 E0F0 F0G0 G0H0 H0I0 I0J0 J0K0 K0K1 K1K2 K2K3 K3K4 K4K5 K5K6 K6L6 L6L5 L5L4 L4L3 L3L2 L2L1 L1L0 L0K0 K0J0 J0I0 I0H0 H0G0 G0F0 F0F1 F1F2 F2F3 F3F4 F4F5 F5F6 F6E6 E6D6 D6D7 D7D8 D8D9 D9E9 E9F9 F9G9 G9G10 G10H10 H10I10 I10I9 I9I8 I8I7 I7I6 I6H6 H6G6 G6F6 F6F5 F5F4 F4F3 F3F2 F2F1 F1E1 E1D1 D1C1 C1C2 C2C3 C3C4 C4C5 C5C6 C6C7 C7D7 D7E7 E7F7 F7G7 G7H7 H7G7 G7F7 F7E7 E7E6 E6D6 D6C6 C6B6 B6B7 B7C7 C7D7 D7E7 E7F7 F7F6 F6F5 F5F4 F4F5 F5F6 F6F7 F7F8 F8F9 F9F10 F10F11 F11G11 G11H11 H11H12 H12I12 I12J12 J12K12 K12L12 L12M12 M12M11 M11M10 M10M9 M9M8 M8M7 M7M8 M8M7 M7M6 M6M5 M5M4 M4M3 M3M2 M2M1 M1M0 M0L0 L0K0 K0J0 J0I0 I0H0 H0G0 G0F0 F0E0 E0D0 D0C0 C0B0 B0B1 B1B2 B2B3 B3B4 B4B5 B5B6 B6B7 B7B8 B8B9 B9B10 B10B11 B11B12 B12B11 B11C11 C11D11 D11E11 E11F11 F11G11 G11G10 G10G9 G9G8 G8F8 F8E8" id="route-ext-3" />
    <route edges="E2E1 E1F1 F1G1 G1H1 H1I1 I1J1 J1K1 K1L1 L1M1 M1N1 N1N2 N2N3 N3N4 N4O4 O4O3 O3N3 N3M3 M3L3 L3K3 K3J3 J3I3 I3H3 H3G3 G3G4 G4G5 G5G6 G6H6 H6I6 I6J6 J6K6 K6L6 L6M6 M6N6 N6N5 N5N4 N4N3 N3N4 N4N5 N5N6 N6N7 N7N8 N8N9 N9N10 N10N11 N11N12 N12N13 N13N14 N14N13 N13N12 N12N11 N11N10 N10N9 N9N8 N8N7 N7N6 N6N5 N5N4 N4N3 N3N2 N2N1 N1N0 N0M0 M0L0 L0K0 K0J0 J0I0 I0H0 H0G0 G0F0 F0E0 E0D0 D0D1 D1D2 D2D3 D3D4 D4D5 D5D6 D6D7 D7D6 D6D7 D7D8 D8D9 D9D10 D10D11 D11E11 E11F11 F11G11 G11H11 H11I11 I11I10 I10I9 I9I8 I8J8 J8J9 J9J10 J10J11 J11J12 J12J13 J13K13 K13K12 K12K11 K11K10 K10K9 K9J9 J9I9 I9H9 H9G9 G9F9 F9E9 E9D9 D9E9 E9F9 F9G9 G9H9 H9I9 I9J9 J9K9 K9L9 L9M9 M9N9 N9O9 O9O8 O8N8 N8M8 M8L8 L8L7 L7L6 L6L5 L5L4 L4L3 L3L2 L2K2 K2J2 J2I2 I2H2 H2G2 G2F2 F2E2 E2F2 F2G2 G2H2 H2I2 I2J2 J2K2 K2L2 L2L3 L3L4 L4L5 L5L6 L6L7 L7L8 L8L9 L9L10 L10L11 L11L12 L12L13 L13L14 L14K14 K14J14 J14I14 I14H14 H14G14 G14G13 G13G12 G12G11 G11G10 G10G9 G9G8 G8H8 H8I8 I8J8 J8K8 K8J8 J8I8 I8I9 I9I10 I10I11 I11I12 I12I13 I13I14 I14J14 J14K14 K14L14 L14L13 L13L12 L12L11 L11L10 L10L9 L9L8 L8L7 L7L8 L8L9 L9L10 L10L11 L11L12 L12L13 L13L14 L14K14 K14J14 J14I14 I14H14 H14I14 I14I13 I13I12 I12I11 I11I10 I10I9 I9I8 I8I7 I7I6 I6I5 I5I4 I4I3 I3I2 I2I1 I1I0 I0H0 H0G0 G0F0 F0E0 E0D0 D0C0 C0B0 B0B1 B1B2 B2B3 B3B4 B4B5 B5B6 B6B7 B7A7 A7A6 A6A5 A5B5 B5C5 C5D5 D5E5 E5F5 F5G5 G5H5 H5I5 I5I6 I6I7 I7I8 I8I9 I9I10 I10H10 H10G10 G10F10 F10E10 E10D10 D10C10 C10C11 C11C12 C12C13 C13D13 D13E13 E13F13 F13G13 G13H13 H13I13 I13J13 J13K13 K13L13 L13M13 M13M12 M12M11 M11M10 M10M9 M9M8 M8M7 M7L7 L7K7 K7J7 J7I7 I7I8 I8I9 I9H9 H9G9 G9H9 H9I9 I9J9 J9K9 K9L9 L9M9 M9M8 M8M7 M7M6 M6M5 M5M4 M4M3 M3M2 M2L2 L2K2 K2J2 J2J3 J3J4 J4J5 J5I5 I5H5 H5I5 I5J5 J5K5 K5L5 L5M5 M5N5 N5N4 N4N3 N3N2 N2N1 N1N0 N0M0 M0L0 L0K0 K0J0 J0I0 I0H0 H0G0 G0F0 F0F1 F1F2 F2F3 F3F4 F4F5 F5F6 F6G6 G6F6 F6E6 E6E7 E7E8 E8E9 E9E10 E10E11 E11F11 F11G11 G11H11 H11I11 I11J11 J11J10 J10K10 K10L10 L10M10 M10N10 N10M10 M10L10 L10K10 K10J10 J10I10 I10H10 H10G10 G10F10 F10E10 E10D10 D10C10 C10C11 C11C12 C12C11 C11C10 C10C9 C9C8 C8C7 C7C6 C6C5 C5C4 C4C3 C3B3 B3A3 A3A4 A4B4 B4C4 C4D4 D4E4 E4F4 F4G4 G4H4 H4I4 I4J4 J4K4 K4L4 L4M4 M4N4 N4O4 O4O3 O3O2 O2O3 O3O2 O2O1 O1O0 O0N0 N0M0 M0L0 L0K0 K0J0 J0K0 K0K1 K1K2 K2K3 K3K4 K4K5 K5K6 K6K7 K7K8 K8L8 L8K8 K8K7 K7K6 K6K5 K5K4 K4K3 K3K2 K2K1 K1K0 K0J0 J0I0 I0H0 H0G0 G0F0 F0E0 E0D0 D0C0 C0C1 C1C2 C2C3 C3C4 C4C5 C5C6 C6C7 C7C8 C8C9 C9C8 C8D8 D8D9 D9D8 D8D7 D7D6 D6D5 D5D4 D4D3 D3D2 D2C2 C2C1 C1C2 C2C3 C3C4 C4C5 C5C6 C6C7 C7C8 C8C9 C9C10 C10C11 C11C12 C12D12 D12D11 D11D10 D10D9 D9D8 D8D7 D7D6 D6D5 D5D4 D4C4 C4B4 B4A4 A4A3 A3A2 A2A1 A1A0 A0B0 B0C0 C0D0 D0E0 E0F0 F0G0 G0G1 G1G2 G2G3 G3G4 G4G5 G5G6 G6G7 G7G8 G8G9 G9G10 G10H10 H10I10 I10J10 J10J11 J11J12 J12I12 I12H12 H12G12 G12F12 F12E12 E12D12 D12C12 C12B12 B12B11 B11B10 B10B9 B9B8 B8B7 B7B6 B6B5 B5B4 B4B3 B3C3 C3D3 D3E3 E3F3 F3G3 G3H3 H3I3 I3J3 J3K3 K3L3 L3M3 M3N3 N3O3 O3N3 N3M3 M3L3 L3K3 K3J3 J3J4 J4J5 J5J6 J6J7 J7J8 J8J9 J9J10 J10J11 J11J12 J12J13 J13J12 J12I12 I12I11 I11I10 I10I9 I9I8 I8I7 I7I6 I6I5 I5I4 I4I3 I3I2 I2I1 I1I0 I0J0 J0K0 K0L0 L0M0 M0N0 N0N1 N1N2 N2N3 N3N4 N4N5 N5N6 N6N7 N7N8 N8N9 N9N10 N10N11 N11M11 M11L11 L11K11 K11J11 J11I11 I11H11 H11G11 G11G10 G10G9 G9G8 G8G7 G7G6 G6G5 G5G4 G4F4 F4E4 E4D4 D4C4 C4B4 B4A4 A4B4 B4B5 B5B6 B6B7 B7C7 C7C6 C6C5 C5C4 C4C3 C3C2 C2C1 C1D1 D1D0 D0C0 C0B0 B0B1 B1B2 B2B3 B3B4 B4B5 B5B6 B6B7 B7B8 B8B9 B9A9 A9A8 A8A7 A7A6 A6A5 A5A4 A4A3 A3A2 A2A1 A1A0 A0B0 B0C0 C0D0 D0D1 D1D2 D2D3 D3D4 D4D5 D5D6 D6D7 D7D8 D8D9 D9E9 E9F9 F9G9 G9H9 H9I9 I9J9 J9I9 I9H9 H9G9 G9F9 F9E9 E9D9 D9C9 C9B9 B9A9 A9A8 A8A7 A7A6 A6A5 A5A4 A4A3 A3A2 A2A3 A3A4 A4A5 A5A6 A6B6 B6C6 C6D6 D6E6 E6F6 F6G6 G6H6 H6I6 I6J6 J6K6 K6L6 L6M6 M6M5 M5L5 L5K5 K5J5 J5I5 I5H5 H5G5 G5F5 F5F6 F6F7 F7F8 F8F9 F9F10 F10F9 F9F8 F8F7 F7E7 E7E6" id="route-ext-4" />
    <route edges="G6G5 G5G4 G4G3 G3G2 G2H2 H2I2 I2J2 J2K2 K2K1 K1J1 J1J2 J2J3 J3J4 J4J5 J5J6 J6J7 J7J8 J8J9 J9J10 J10J11 J11J12 J12J13 J13J14 J14I14 I14H14 H14G14 G14F14 F14F13 F13F12 F12F11 F11F10 F10F9 F9F8 F8G8 G8H8 H8I8 I8J8 J8K8 K8L8 L8L7 L7L6 L6L5 L5K5 K5J5 J5I5 I5H5 H5G5 G5F5 F5E5 E5D5 D5C5 C5D5 D5E5 E5F5 F5G5 G5H5 H5I5 I5J5 J5K5 K5L5 L5M5 M5N5 N5N4 N4M4 M4L4 L4K4 K4J4 J4I4 I4H4 H4G4 G4G5 G5G6 G6G7 G7G8 G8G9 G9G10 G10H10 H10H9 H9H10 H10I10 I10J10 J10I10 I10H10 H10G10 G10F10 F10F11 F11E11 E11E10 E10E9 E9E8 E8E7 E7E6 E6F6 F6E6 E6D6 D6C6 C6B6 B6A6 A6A7 A7A8 A8A9 A9A8 A8A9 A9A10 A10A11 A11A12 A12A13 A13A14 A14B14 B14C14 C14D14 D14E14 E14F14 F14G14 G14H14 H14I14 I14J14 J14K14 K14J14 J14I14 I14H14 H14G14 G14F14 F14E14 E14D14 D14C14 C14B14 B14B13 B13B12 B12B11 B11C11 C11D11 D11E11 E11F11 F11G11 G11H11 H11I11 I11J11 J11K11 K11L11 L11M11 M11M12 M12L12 L12K12 K12J12 J12I12 I12H12 H12G12 G12F12 F12E12 E12D12 D12C12 C12B12 B12B13 B13C13 C13D13 D13E13 E13F13 F13G13 G13H13 H13I13 I13J13 J13K13 K13L13 L13M13 M13M12 M12M11 M11M10 M10M9 M9M8 M8M7 M7L7 L7K7 K7K8 K8K9 K9K10 K10K11 K11J11 J11I11 I11J11 J11K11 K11L11 L11M11 M11N11 N11N10 N10N9 N9N8 N8N7 N7N6 N6N5 N5N4 N4N3 N3N2 N2N1 N1N2 N2N1 N1M1 M1L1 L1K1 K1J1 J1I1 I1H1 H1G1 G1G2 G2G3 G3G4 G4G5 G5F5 F5E5 E5E6 E6E7 E7E8 E8E9 E9E10 E10E11 E11E12 E12E13 E13D13 D13E13 E13F13 F13G13 G13H13 H13I13 I13J13 J13K13 K13L13 L13M13 M13M12 M12M11 M11M10 M10M9 M9M8 M8M7 M7M6 M6M5 M5M4 M4M5 M5M6 M6M7 M7M8 M8M9 M9M10 M10M11 M11M10 M10L10 L10K10 K10J10 J10I10 I10H10 H10G10 G10F10 F10E10 E10E9 E9E8 E8E7 E7E6 E6E5 E5F5 F5G5 G5H5 H5I5 I5J5 J5K5 K5J5 J5K5 K5L5 L5M5 M5N5 N5N4 N4N3 N3N2 N2M2 M2L2 L2K2 K2J2 J2I2 I2H2 H2G2 G2F2 F2E2 E2D2 D2D3 D3D4 D4D5 D5D6 D6D7 D7D8 D8D9 D9D10 D10D11 D11C11 C11B11 B11A11 A11A10 A10A9 A9A8 A8A7 A7A6 A6A5 A5A4 A4A3 A3B3 B3C3 C3D3 D3E3 E3F3 F3G3 G3H3 H3I3 I3J3 J3J4 J4J5 J5J6 J6K6 K6L6 L6L5 L5K5 K5J5 J5I5 I5H5 H5H6 H6H7 H7H8 H8H9 H9H10 H10G10 G10F10 F10E10 E10D10 D10C10 C10C9 C9C8 C8C7 C7C8 C8D8 D8E8 E8F8 F8E8 E8F8 F8G8 G8H8 H8H7 H7H6 H6H5 H5H4 H4H3 H3H4 H4H5 H5H6 H6H7 H7H8 H8H9 H9H10 H10H11 H11H12 H12G12 G12F12 F12E12 E12F12 F12G12 G12H12 H12I12 I12I11 I11I10 I10I9 I9I8 I8I7 I7I6 I6I5 I5I4 I4I3 I3I2 I2H2 H2G2 G2F2 F2E2 E2E1 E1E0 E0F0 F0G0 G0H0 H0I0 I0J0 J0K0 K0L0 L0L1 L1L2 L2L3 L3L4 L4L5 L5L6 L6K6 K6J6 J6I6 I6H6 H6G6 G6F6 F6F7 F7F8 F8F9 F9F10 F10F11 F11F12 F12F13 F13F12 F12F11 F11F10 F10E10 E10D10 D10C10 C10B10 B10B9 B9C9 C9D9 D9E9 E9F9 F9G9 G9H9 H9I9 I9J9 J9K9 K9L9 L9M9 M9N9 N9O9 O9N9 N9M9 M9L9 L9K9 K9J9 J9I9 I9H9 H9G9 G9F9 F9E9 E9D9 D9C9 C9C10 C10C11 C11C12 C12C13 C13D13 D13E13 E13F13 F13G13 G13H13 H13I13 I13I12 I12I11 I11I10 I10I9 I9I8 I8I7 I7H7 H7G7 G7F7 F7E7 E7E6 E6E5 E5E4 E4E3 E3E2 E2E1 E1E0 E0F0 F0G0 G0H0 H0I0 I0J0 J0K0 K0L0 L0M0 M0N0 N0O0 O0O1 O1O2 O2O3 O3O4 O4N4 N4M4 M4L4 L4K4 K4J4 J4I4 I4H4 H4G4 G4F4 F4F5 F5F6 F6F7 F7F8 F8G8 G8G7 G7G6 G6G5 G5G4 G4G3 G3F3 F3E3 E3D3 D3C3 C3B3 B3A3 A3A4 A4A5 A5A6 A6A7 A7A8 A8A9 A9A10 A10B10 B10C10 C10D10 D10E10 E10F10 F10G10 G10H10 H10I10 I10J10 J10K10 K10L10 L10M10 M10M9 M9M8 M8M7 M7M6 M6M5 M5M4 M4L4 L4K4 K4K5 K5K6 K6K7 K7K8 K8K9 K9K10 K10K11 K11L11 L11K11 K11J11 J11I11 I11H11 H11G11 G11G12 G12G11 G11G10 G10G9 G9G8 G8G7 G7G6 G6G5 G5H5 H5I5 I5J5 J5K5 K5K6 K6K7 K7K8 K8K9 K9K10 K10K11 K11J11 J11I11 I11H11 H11H10 H10H9 H9H8 H8H7 H7H6 H6H5 H5H4 H4H3 H3G3 G3F3 F3E3 E3D3 D3C3 C3B3 B3B4 B4B5 B5B6 B6B7 B7B8 B8B9 B9B10 B10C10 C10D10 D10E10 E10F10 F10G10 G10H10 H10I10 I10J10 J10K10 K10L10 L10M10 M10N10 N10N9 N9N8 N8N7 N7N6 N6M6 M6L6 L6K6 K6J6 J6I6 I6H6 H6G6 G6F6 F6E6 E6D6 D6C6 C6D6 D6E6 E6F6 F6G6 G6H6 H6I6 I6J6 J6K6 K6L6 L6M6 M6N6 N6M6 M6L6 L6K6 K6J6 J6I6 I6H6 H6G6 G6F6 F6E6 E6D6 D6D7 D7D8 D8D7 D7D8 D8D9 D9D10 D10D11 D11D12 D12E12 E12F12 F12F13 F13F12 F12F11 F11F10 F10E10 E10D10 D10C10 C10B10 B10A10 A10B10 B10C10 C10D10 D10D11 D11E11 E11F11 F11G11 G11H11 H11I11 I11J11 J11K11 K11K10 K10K9 K9K8 K8K7 K7K6 K6K5 K5K4 K4K3 K3K2 K2J2 J2I2 I2H2 H2G2 G2F2 F2E2 E2D2 D2C2 C2B2 B2B3 B3B4 B4B5 B5B6 B6B7 B7B8 B8B9 B9B10 B10B11 B11B12 B12A12" id="route-ext-5" />
    <route edges="J5I5 I5I6 I6I7 I7I8 I8I9 I9I8 I8I7 I7I6 I6I5 I5H5 H5G5 G5F5 F5E5 E5D5 D5C5 C5B5 B5B6 B6B7 B7B8 B8B9 B9B10 B10B11 B11B12 B12C12 C12D12 D12E12 E12F12 F12G12 G12H12 H12I12 I12J12 J12K12 K12L12 L12M12 M12N12 N12O12 O12O11 O11O10 O10O9 O9O8 O8O7 O7O6 O6O5 O5O4 O4O5 O5O4 O4O3 O3O2 O2N2 N2M2 M2L2 L2K2 K2J2 J2I2 I2H2 H2G2 G2G3 G3G4 G4G5 G5G6 G6G7 G7H7 H7I7 I7J7 J7I7 I7J7 J7K7 K7K6 K6L6 L6L7 L7L8 L8L9 L9L10 L10L11 L11L12 L12L13 L13L14 L14L13 L13L12 L12L11 L11L10 L10L9 L9M9 M9L9 L9K9 K9J9 J9I9 I9H9 H9G9 G9F9 F9F8 F8F7 F7F6 F6F7 F7F8 F8G8 G8H8 H8I8 I8J8 J8J7 J7J6 J6J5 J5J4 J4J3 J3I3 I3H3 H3G3 G3F3 F3E3 E3D3 D3E3 E3F3 F3G3 G3H3 H3I3 I3J3 J3K3 K3L3 L3M3 M3M4 M4M5 M5M6 M6M7 M7M6 M6M5 M5M4 M4M3 M3M2 M2L2 L2K2 K2J2 J2I2 I2H2 H2G2 G2F2 F2E2 E2D2 D2C2 C2D2 D2C2 C2B2 B2B3 B3B4 B4B5 B5B6 B6B7 B7B8 B8B9 B9B10 B10B11 B11B12 B12B13 B13C13 C13D13 D13E13 E13F13 F13G13 G13H13 H13I13 I13J13 J13K13 K13L13 L13M13 M13N13 N13M13 M13L13 L13K13 K13K12 K12K11 K11K10 K10K9 K9K8 K8K7 K7K6 K6K5 K5K4 K4K3 K3K2 K2K1 K1K0 K0K1 K1K2 K2K3 K3K4 K4K3 K3K2 K2J2 J2I2 I2H2 H2G2 G2F2 F2E2 E2D2 D2C2 C2B2 B2C2 C2D2 D2E2 E2F2 F2G2 G2H2 H2H3 H3H4 H4H5 H5H6 H6H7 H7H8 H8H9 H9I9 I9J9 J9K9 K9K8 K8K7 K7L7 L7L6 L6L5 L5L4 L4L3 L3K3 K3J3 J3I3 I3H3 H3G3 G3F3 F3E3 E3D3 D3D4 D4D5 D5D6 D6D7 D7D8 D8E8 E8F8 F8G8 G8H8 H8I8 I8J8 J8J9 J9J10 J10J11 J11J12 J12J13 J13J12 J12J11 J11J10 J10J9 J9I9 I9H9 H9G9 G9F9 F9E9 E9E8 E8E9 E9E10 E10E11 E11E12 E12E13 E13F13 F13G13 G13H13 H13I13 I13J13 J13K13 K13L13 L13M13 M13N13 N13M13 M13M12 M12M11 M11M10 M10L10 L10K10 K10J10 J10I10 I10H10 H10G10 G10F10 F10E10 E10D10 D10C10 C10B10 B10B11 B11B10 B10A10 A10A11 A11A12 A12B12 B12B11 B11B10 B10B9 B9B8 B8B7 B7B6 B6B5 B5B4 B4B3 B3B2 B2B1 B1B0 B0C0 C0D0 D0E0 E0F0 F0G0 G0H0 H0I0 I0J0 J0K0 K0J0 J0J1 J1J2 J2K2 K2L2 L2L3 L3L4 L4L5 L5L6 L6L7 L7L8 L8L9 L9L10 L10L11 L11L12 L12L13 L13K13 K13J13 J13I13 I13H13 H13G13 G13G12 G12G11 G11G10 G10G9 G9G8 G8G7 G7G6 G6G5 G5G4 G4G3 G3G2 G2H2 H2I2 I2J2 J2K2 K2L2 L2M2 M2N2 N2O2 O2N2 N2M2 M2L2 L2K2 K2J2 J2I2 I2H2 H2G2 G2F2 F2F3 F3F4 F4F3 F3F4 F4F5 F5F6 F6F7 F7F8 F8F9 F9G9 G9H9 H9I9 I9J9 J9J10 J10J9 J9I9 I9H9 H9G9 G9F9 F9E9 E9D9 D9C9 C9B9 B9B8 B8B7 B7B6 B6B5 B5B4 B4B3 B3B2 B2B1 B1B2 B2C2 C2D2 D2E2 E2E3 E3E4 E4E5 E5E6 E6E7 E7F7 F7G7 G7H7 H7I7 I7J7 J7K7 K7L7 L7K7 K7J7 J7I7 I7I8 I8I9 I9I10 I10I11 I11I12 I12I11 I11I10 I10J10 J10K10 K10L10 L10M10 M10N10 N10O10 O10O9 O9O8 O8O7 O7O6 O6O5 O5O4 O4N4 N4M4 M4L4 L4K4 K4K5 K5K6 K6K7 K7K8 K8K9 K9K10 K10K11 K11K12 K12J12 J12I12 I12H12 H12G12 G12F12 F12E12 E12D12 D12C12 C12B12 B12A12 A12B12 B12C12 C12D12 D12E12 E12F12 F12G12 G12H12 H12H11 H11H10 H10H9 H9H8 H8H9 H9H10 H10H11 H11I11 I11J11 J11K11 K11L11 L11M11 M11M12 M12M11 M11M10 M10M9 M9M8 M8M7 M7M6 M6M5 M5M4 M4M3 M3L3 L3K3 K3J3 J3I3 I3H3 H3G3 G3F3 F3E3 E3F3 F3F4 F4F5 F5F6 F6F7 F7F8 F8F9 F9F10 F10F11 F11F12 F12F13 F13F14 F14G14 G14H14 H14I14 I14J14 J14K14 K14L14 L14K14 K14L14 L14L13 L13L12 L12L11 L11L10 L10L9 L9L8 L8L7 L7L6 L6L5 L5L4 L4L5 L5L6 L6L7 L7K7 K7J7 J7I7 I7I8 I8I9 I9I10 I10H10 H10G10 G10F10 F10E10 E10D10 D10C10 C10B10 B10C10 C10D10 D10E10 E10F10 F10G10 G10H10 H10I10 I10J10 J10K10 K10L10 L10L9 L9L8 L8L7 L7L8 L8L7 L7L6 L6L5 L5L4 L4K4 K4J4 J4I4 I4H4 H4I4 I4J4 J4K4 K4L4 L4M4 M4M3 M3M2 M2M3 M3M4 M4M5 M5M6 M6M7 M7M8 M8M9 M9M10 M10M11 M11L11 L11K11 K11J11 J11J10 J10J9 J9K9 K9J9 J9I9 I9H9 H9G9 G9F9 F9E9 E9D9 D9C9 C9B9 B9A9 A9A10 A10A11 A11A12 A12A13 A13A14 A14B14 B14C14 C14D14 D14E14 E14F14 F14G14 G14H14 H14I14 I14J14 J14K14 K14K13 K13L13 L13K13 K13J13 J13I13 I13H13 H13G13 G13F13 F13E13 E13E14 E14E13 E13E12 E12E11 E11E10 E10E9 E9E8 E8E7 E7E6 E6E5 E5E4 E4D4 D4C4 C4C5 C5C6 C6C7 C7D7 D7E7 E7D7 D7C7 C7C8 C8C9 C9D9 D9E9 E9F9 F9G9 G9H9 H9I9 I9J9 J9K9 K9L9 L9L10 L10L11 L11L12 L12M12 M12N12 N12N11 N11N10 N10N9 N9N8 N8N7 N7N6 N6N5 N5N4 N4N3 N3O3 O3N3 N3M3 M3L3 L3K3 K3J3 J3I3 I3H3 H3H4 H4H5 H5H6 H6H7 H7H8 H8H9 H9H10 H10H11 H11H12 H12H13 H13I13 I13I12 I12I11 I11I10 I10I9 I9H9 H9G9 G9F9 F9E9 E9D9 D9C9 C9C10 C10C11 C11C12 C12D12 D12E12 E12F12 F12G12 G12H12 H12I12 I12J12 J12K12 K12K11 K11K10 K10J10 J10I10 I10H10 H10G10 G10F10 F10E10 E10D10 D10C10 C10B10 B10B11" id="route-ext-6" />