<?xml version="1.0" encoding="UTF-8"?>

<!-- generated on Wed Mar  1 04:02:30 2023 by Eclipse SUMO netgenerate Version 1.8.0
<configuration xmlns:xsi="http://www.w3.org/2001/XMLSchema-instance" xsi:noNamespaceSchemaLocation="http://sumo.dlr.de/xsd/netgenerateConfiguration.xsd">

    <grid_network>
        <grid value="true"/>
        <grid.number value="15"/>
        <grid.length value="125"/>
    </grid_network>

    <output>
        <output-file value="drones.net.xml"/>
    </output>

    <building_defaults>
        <default.lanenumber value="1"/>
    </building_defaults>

</configuration>
-->

<net version="1.6" junctionCornerDetail="5" limitTurnSpeed="5.50" xmlns:xsi="http://www.w3.org/2001/XMLSchema-instance" xsi:noNamespaceSchemaLocation="http://sumo.dlr.de/xsd/net_file.xsd">

    <location netOffset="0.00,0.00" convBoundary="0.00,0.00,1750.00,1750.00" origBoundary="0.00,0.00,1750.00,1750.00" projParameter="!"/>

    <edge id=":A0_0" function="internal">
        <lane id=":A0_0_0" index="0" speed="6.08" length="7.74" shape="-1.60,3.20 -1.30,1.10 -0.40,-0.40 1.10,-1.30 3.20,-1.60"/>
    </edge>
    <edge id=":A0_1" function="internal">
        <lane id=":A0_1_0" index="0" speed="3.90" length="2.58" shape="3.20,1.60 2.50,1.70 2.00,2.00 1.70,2.50 1.60,3.20"/>
    </edge>
    <edge id=":A1_0" function="internal">
        <lane id=":A1_0_0" index="0" speed="13.89" length="14.40" shape="-1.60,132.20 -1.60,117.80"/>
    </edge>
    <edge id=":A1_1" function="internal">
        <lane id=":A1_1_0" index="0" speed="8.00" length="5.93" shape="-1.60,132.20 -1.05,128.35 0.00,126.60"/>
    </edge>
    <edge id=":A1_2" function="internal">
        <lane id=":A1_2_0" index="0" speed="3.65" length="2.34" shape="-1.60,132.20 -0.80,131.00 0.00,130.60"/>
    </edge>
    <edge id=":A1_9" function="internal">
        <lane id=":A1_9_0" index="0" speed="8.00" length="8.26" shape="0.00,126.60 0.60,125.60 3.35,123.95 7.20,123.40"/>
    </edge>
    <edge id=":A1_10" function="internal">
        <lane id=":A1_10_0" index="0" speed="3.65" length="2.34" shape="0.00,130.60 0.80,131.00 1.60,132.20"/>
    </edge>
    <edge id=":A1_3" function="internal">
        <lane id=":A1_3_0" index="0" speed="6.51" length="9.03" shape="7.20,126.60 4.75,126.95 3.00,128.00 1.95,129.75 1.60,132.20"/>
    </edge>
    <edge id=":A1_4" function="internal">
        <lane id=":A1_4_0" index="0" speed="8.00" length="14.19" shape="7.20,126.60 3.35,126.05 0.60,124.40 -1.05,121.65 -1.60,117.80"/>
    </edge>
    <edge id=":A1_5" function="internal">
        <lane id=":A1_5_0" index="0" speed="3.65" length="4.67" shape="7.20,126.60 6.00,125.80 5.60,125.00 6.00,124.20 7.20,123.40"/>
    </edge>
    <edge id=":A1_6" function="internal">
        <lane id=":A1_6_0" index="0" speed="6.51" length="9.03" shape="1.60,117.80 1.95,120.25 3.00,122.00 4.75,123.05 7.20,123.40"/>
    </edge>
    <edge id=":A1_7" function="internal">
        <lane id=":A1_7_0" index="0" speed="13.89" length="14.40" shape="1.60,117.80 1.60,132.20"/>
    </edge>
    <edge id=":A1_8" function="internal">
        <lane id=":A1_8_0" index="0" speed="3.65" length="2.34" shape="1.60,117.80 0.80,119.00 0.00,119.40"/>
    </edge>
    <edge id=":A1_11" function="internal">
        <lane id=":A1_11_0" index="0" speed="3.65" length="2.34" shape="0.00,119.40 -0.80,119.00 -1.60,117.80"/>
    </edge>
    <edge id=":A10_0" function="internal">
        <lane id=":A10_0_0" index="0" speed="13.89" length="14.40" shape="-1.60,1257.20 -1.60,1242.80"/>
    </edge>
    <edge id=":A10_1" function="internal">
        <lane id=":A10_1_0" index="0" speed="8.00" length="5.93" shape="-1.60,1257.20 -1.05,1253.35 0.00,1251.60"/>
    </edge>
    <edge id=":A10_2" function="internal">
        <lane id=":A10_2_0" index="0" speed="3.65" length="2.34" shape="-1.60,1257.20 -0.80,1256.00 0.00,1255.60"/>
    </edge>
    <edge id=":A10_9" function="internal">
        <lane id=":A10_9_0" index="0" speed="8.00" length="8.26" shape="0.00,1251.60 0.60,1250.60 3.35,1248.95 7.20,1248.40"/>
    </edge>
    <edge id=":A10_10" function="internal">
        <lane id=":A10_10_0" index="0" speed="3.65" length="2.34" shape="0.00,1255.60 0.80,1256.00 1.60,1257.20"/>
    </edge>
    <edge id=":A10_3" function="internal">
        <lane id=":A10_3_0" index="0" speed="6.51" length="9.03" shape="7.20,1251.60 4.75,1251.95 3.00,1253.00 1.95,1254.75 1.60,1257.20"/>
    </edge>
    <edge id=":A10_4" function="internal">
        <lane id=":A10_4_0" index="0" speed="8.00" length="14.19" shape="7.20,1251.60 3.35,1251.05 0.60,1249.40 -1.05,1246.65 -1.60,1242.80"/>
    </edge>
    <edge id=":A10_5" function="internal">
        <lane id=":A10_5_0" index="0" speed="3.65" length="4.67" shape="7.20,1251.60 6.00,1250.80 5.60,1250.00 6.00,1249.20 7.20,1248.40"/>
    </edge>
    <edge id=":A10_6" function="internal">
        <lane id=":A10_6_0" index="0" speed="6.51" length="9.03" shape="1.60,1242.80 1.95,1245.25 3.00,1247.00 4.75,1248.05 7.20,1248.40"/>
    </edge>
    <edge id=":A10_7" function="internal">
        <lane id=":A10_7_0" index="0" speed="13.89" length="14.40" shape="1.60,1242.80 1.60,1257.20"/>
    </edge>
    <edge id=":A10_8" function="internal">
        <lane id=":A10_8_0" index="0" speed="3.65" length="2.34" shape="1.60,1242.80 0.80,1244.00 0.00,1244.40"/>
    </edge>
    <edge id=":A10_11" function="internal">
        <lane id=":A10_11_0" index="0" speed="3.65" length="2.34" shape="0.00,1244.40 -0.80,1244.00 -1.60,1242.80"/>
    </edge>
    <edge id=":A11_0" function="internal">
        <lane id=":A11_0_0" index="0" speed="13.89" length="14.40" shape="-1.60,1382.20 -1.60,1367.80"/>
    </edge>
    <edge id=":A11_1" function="internal">
        <lane id=":A11_1_0" index="0" speed="8.00" length="5.93" shape="-1.60,1382.20 -1.05,1378.35 0.00,1376.60"/>
    </edge>
    <edge id=":A11_2" function="internal">
        <lane id=":A11_2_0" index="0" speed="3.65" length="2.34" shape="-1.60,1382.20 -0.80,1381.00 0.00,1380.60"/>
    </edge>
    <edge id=":A11_9" function="internal">
        <lane id=":A11_9_0" index="0" speed="8.00" length="8.26" shape="0.00,1376.60 0.60,1375.60 3.35,1373.95 7.20,1373.40"/>
    </edge>
    <edge id=":A11_10" function="internal">
        <lane id=":A11_10_0" index="0" speed="3.65" length="2.34" shape="0.00,1380.60 0.80,1381.00 1.60,1382.20"/>
    </edge>
    <edge id=":A11_3" function="internal">
        <lane id=":A11_3_0" index="0" speed="6.51" length="9.03" shape="7.20,1376.60 4.75,1376.95 3.00,1378.00 1.95,1379.75 1.60,1382.20"/>
    </edge>
    <edge id=":A11_4" function="internal">
        <lane id=":A11_4_0" index="0" speed="8.00" length="14.19" shape="7.20,1376.60 3.35,1376.05 0.60,1374.40 -1.05,1371.65 -1.60,1367.80"/>
    </edge>
    <edge id=":A11_5" function="internal">
        <lane id=":A11_5_0" index="0" speed="3.65" length="4.67" shape="7.20,1376.60 6.00,1375.80 5.60,1375.00 6.00,1374.20 7.20,1373.40"/>
    </edge>
    <edge id=":A11_6" function="internal">
        <lane id=":A11_6_0" index="0" speed="6.51" length="9.03" shape="1.60,1367.80 1.95,1370.25 3.00,1372.00 4.75,1373.05 7.20,1373.40"/>
    </edge>
    <edge id=":A11_7" function="internal">
        <lane id=":A11_7_0" index="0" speed="13.89" length="14.40" shape="1.60,1367.80 1.60,1382.20"/>
    </edge>
    <edge id=":A11_8" function="internal">
        <lane id=":A11_8_0" index="0" speed="3.65" length="2.34" shape="1.60,1367.80 0.80,1369.00 0.00,1369.40"/>
    </edge>
    <edge id=":A11_11" function="internal">
        <lane id=":A11_11_0" index="0" speed="3.65" length="2.34" shape="0.00,1369.40 -0.80,1369.00 -1.60,1367.80"/>
    </edge>
    <edge id=":A12_0" function="internal">
        <lane id=":A12_0_0" index="0" speed="13.89" length="14.40" shape="-1.60,1507.20 -1.60,1492.80"/>
    </edge>
    <edge id=":A12_1" function="internal">
        <lane id=":A12_1_0" index="0" speed="8.00" length="5.93" shape="-1.60,1507.20 -1.05,1503.35 0.00,1501.60"/>
    </edge>
    <edge id=":A12_2" function="internal">
        <lane id=":A12_2_0" index="0" speed="3.65" length="2.34" shape="-1.60,1507.20 -0.80,1506.00 0.00,1505.60"/>
    </edge>
    <edge id=":A12_9" function="internal">
        <lane id=":A12_9_0" index="0" speed="8.00" length="8.26" shape="0.00,1501.60 0.60,1500.60 3.35,1498.95 7.20,1498.40"/>
    </edge>
    <edge id=":A12_10" function="internal">
        <lane id=":A12_10_0" index="0" speed="3.65" length="2.34" shape="0.00,1505.60 0.80,1506.00 1.60,1507.20"/>
    </edge>
    <edge id=":A12_3" function="internal">
        <lane id=":A12_3_0" index="0" speed="6.51" length="9.03" shape="7.20,1501.60 4.75,1501.95 3.00,1503.00 1.95,1504.75 1.60,1507.20"/>
    </edge>
    <edge id=":A12_4" function="internal">
        <lane id=":A12_4_0" index="0" speed="8.00" length="14.19" shape="7.20,1501.60 3.35,1501.05 0.60,1499.40 -1.05,1496.65 -1.60,1492.80"/>
    </edge>
    <edge id=":A12_5" function="internal">
        <lane id=":A12_5_0" index="0" speed="3.65" length="4.67" shape="7.20,1501.60 6.00,1500.80 5.60,1500.00 6.00,1499.20 7.20,1498.40"/>
    </edge>
    <edge id=":A12_6" function="internal">
        <lane id=":A12_6_0" index="0" speed="6.51" length="9.03" shape="1.60,1492.80 1.95,1495.25 3.00,1497.00 4.75,1498.05 7.20,1498.40"/>
    </edge>
    <edge id=":A12_7" function="internal">
        <lane id=":A12_7_0" index="0" speed="13.89" length="14.40" shape="1.60,1492.80 1.60,1507.20"/>
    </edge>
    <edge id=":A12_8" function="internal">
        <lane id=":A12_8_0" index="0" speed="3.65" length="2.34" shape="1.60,1492.80 0.80,1494.00 0.00,1494.40"/>
    </edge>
    <edge id=":A12_11" function="internal">
        <lane id=":A12_11_0" index="0" speed="3.65" length="2.34" shape="0.00,1494.40 -0.80,1494.00 -1.60,1492.80"/>
    </edge>
    <edge id=":A13_0" function="internal">
        <lane id=":A13_0_0" index="0" speed="13.89" length="14.40" shape="-1.60,1632.20 -1.60,1617.80"/>
    </edge>
    <edge id=":A13_1" function="internal">
        <lane id=":A13_1_0" index="0" speed="8.00" length="5.93" shape="-1.60,1632.20 -1.05,1628.35 0.00,1626.60"/>
    </edge>
    <edge id=":A13_2" function="internal">
        <lane id=":A13_2_0" index="0" speed="3.65" length="2.34" shape="-1.60,1632.20 -0.80,1631.00 0.00,1630.60"/>
    </edge>
    <edge id=":A13_9" function="internal">
        <lane id=":A13_9_0" index="0" speed="8.00" length="8.26" shape="0.00,1626.60 0.60,1625.60 3.35,1623.95 7.20,1623.40"/>
    </edge>
    <edge id=":A13_10" function="internal">
        <lane id=":A13_10_0" index="0" speed="3.65" length="2.34" shape="0.00,1630.60 0.80,1631.00 1.60,1632.20"/>
    </edge>
    <edge id=":A13_3" function="internal">
        <lane id=":A13_3_0" index="0" speed="6.51" length="9.03" shape="7.20,1626.60 4.75,1626.95 3.00,1628.00 1.95,1629.75 1.60,1632.20"/>
    </edge>
    <edge id=":A13_4" function="internal">
        <lane id=":A13_4_0" index="0" speed="8.00" length="14.19" shape="7.20,1626.60 3.35,1626.05 0.60,1624.40 -1.05,1621.65 -1.60,1617.80"/>
    </edge>
    <edge id=":A13_5" function="internal">
        <lane id=":A13_5_0" index="0" speed="3.65" length="4.67" shape="7.20,1626.60 6.00,1625.80 5.60,1625.00 6.00,1624.20 7.20,1623.40"/>
    </edge>
    <edge id=":A13_6" function="internal">
        <lane id=":A13_6_0" index="0" speed="6.51" length="9.03" shape="1.60,1617.80 1.95,1620.25 3.00,1622.00 4.75,1623.05 7.20,1623.40"/>
    </edge>
    <edge id=":A13_7" function="internal">
        <lane id=":A13_7_0" index="0" speed="13.89" length="14.40" shape="1.60,1617.80 1.60,1632.20"/>
    </edge>
    <edge id=":A13_8" function="internal">
        <lane id=":A13_8_0" index="0" speed="3.65" length="2.34" shape="1.60,1617.80 0.80,1619.00 0.00,1619.40"/>
    </edge>
    <edge id=":A13_11" function="internal">
        <lane id=":A13_11_0" index="0" speed="3.65" length="2.34" shape="0.00,1619.40 -0.80,1619.00 -1.60,1617.80"/>
    </edge>
    <edge id=":A14_0" function="internal">
        <lane id=":A14_0_0" index="0" speed="6.08" length="7.74" shape="3.20,1751.60 1.10,1751.30 -0.40,1750.40 -1.30,1748.90 -1.60,1746.80"/>
    </edge>
    <edge id=":A14_1" function="internal">
        <lane id=":A14_1_0" index="0" speed="3.90" length="2.58" shape="1.60,1746.80 1.70,1747.50 2.00,1748.00 2.50,1748.30 3.20,1748.40"/>
    </edge>
    <edge id=":A2_0" function="internal">
        <lane id=":A2_0_0" index="0" speed="13.89" length="14.40" shape="-1.60,257.20 -1.60,242.80"/>
    </edge>
    <edge id=":A2_1" function="internal">
        <lane id=":A2_1_0" index="0" speed="8.00" length="5.93" shape="-1.60,257.20 -1.05,253.35 0.00,251.60"/>
    </edge>
    <edge id=":A2_2" function="internal">
        <lane id=":A2_2_0" index="0" speed="3.65" length="2.34" shape="-1.60,257.20 -0.80,256.00 0.00,255.60"/>
    </edge>
    <edge id=":A2_9" function="internal">
        <lane id=":A2_9_0" index="0" speed="8.00" length="8.26" shape="0.00,251.60 0.60,250.60 3.35,248.95 7.20,248.40"/>
    </edge>
    <edge id=":A2_10" function="internal">
        <lane id=":A2_10_0" index="0" speed="3.65" length="2.34" shape="0.00,255.60 0.80,256.00 1.60,257.20"/>
    </edge>
    <edge id=":A2_3" function="internal">
        <lane id=":A2_3_0" index="0" speed="6.51" length="9.03" shape="7.20,251.60 4.75,251.95 3.00,253.00 1.95,254.75 1.60,257.20"/>
    </edge>
    <edge id=":A2_4" function="internal">
        <lane id=":A2_4_0" index="0" speed="8.00" length="14.19" shape="7.20,251.60 3.35,251.05 0.60,249.40 -1.05,246.65 -1.60,242.80"/>
    </edge>
    <edge id=":A2_5" function="internal">
        <lane id=":A2_5_0" index="0" speed="3.65" length="4.67" shape="7.20,251.60 6.00,250.80 5.60,250.00 6.00,249.20 7.20,248.40"/>
    </edge>
    <edge id=":A2_6" function="internal">
        <lane id=":A2_6_0" index="0" speed="6.51" length="9.03" shape="1.60,242.80 1.95,245.25 3.00,247.00 4.75,248.05 7.20,248.40"/>
    </edge>
    <edge id=":A2_7" function="internal">
        <lane id=":A2_7_0" index="0" speed="13.89" length="14.40" shape="1.60,242.80 1.60,257.20"/>
    </edge>
    <edge id=":A2_8" function="internal">
        <lane id=":A2_8_0" index="0" speed="3.65" length="2.34" shape="1.60,242.80 0.80,244.00 0.00,244.40"/>
    </edge>
    <edge id=":A2_11" function="internal">
        <lane id=":A2_11_0" index="0" speed="3.65" length="2.34" shape="0.00,244.40 -0.80,244.00 -1.60,242.80"/>
    </edge>
    <edge id=":A3_0" function="internal">
        <lane id=":A3_0_0" index="0" speed="13.89" length="14.40" shape="-1.60,382.20 -1.60,367.80"/>
    </edge>
    <edge id=":A3_1" function="internal">
        <lane id=":A3_1_0" index="0" speed="8.00" length="5.93" shape="-1.60,382.20 -1.05,378.35 -0.00,376.60"/>
    </edge>
    <edge id=":A3_2" function="internal">
        <lane id=":A3_2_0" index="0" speed="3.65" length="2.34" shape="-1.60,382.20 -0.80,381.00 0.00,380.60"/>
    </edge>
    <edge id=":A3_9" function="internal">
        <lane id=":A3_9_0" index="0" speed="8.00" length="8.26" shape="-0.00,376.60 0.60,375.60 3.35,373.95 7.20,373.40"/>
    </edge>
    <edge id=":A3_10" function="internal">
        <lane id=":A3_10_0" index="0" speed="3.65" length="2.34" shape="0.00,380.60 0.80,381.00 1.60,382.20"/>
    </edge>
    <edge id=":A3_3" function="internal">
        <lane id=":A3_3_0" index="0" speed="6.51" length="9.03" shape="7.20,376.60 4.75,376.95 3.00,378.00 1.95,379.75 1.60,382.20"/>
    </edge>
    <edge id=":A3_4" function="internal">
        <lane id=":A3_4_0" index="0" speed="8.00" length="14.19" shape="7.20,376.60 3.35,376.05 0.60,374.40 -1.05,371.65 -1.60,367.80"/>
    </edge>
    <edge id=":A3_5" function="internal">
        <lane id=":A3_5_0" index="0" speed="3.65" length="4.67" shape="7.20,376.60 6.00,375.80 5.60,375.00 6.00,374.20 7.20,373.40"/>
    </edge>
    <edge id=":A3_6" function="internal">
        <lane id=":A3_6_0" index="0" speed="6.51" length="9.03" shape="1.60,367.80 1.95,370.25 3.00,372.00 4.75,373.05 7.20,373.40"/>
    </edge>
    <edge id=":A3_7" function="internal">
        <lane id=":A3_7_0" index="0" speed="13.89" length="14.40" shape="1.60,367.80 1.60,382.20"/>
    </edge>
    <edge id=":A3_8" function="internal">
        <lane id=":A3_8_0" index="0" speed="3.65" length="2.34" shape="1.60,367.80 0.80,369.00 0.00,369.40"/>
    </edge>
    <edge id=":A3_11" function="internal">
        <lane id=":A3_11_0" index="0" speed="3.65" length="2.34" shape="0.00,369.40 -0.80,369.00 -1.60,367.80"/>
    </edge>
    <edge id=":A4_0" function="internal">
        <lane id=":A4_0_0" index="0" speed="13.89" length="14.40" shape="-1.60,507.20 -1.60,492.80"/>
    </edge>
    <edge id=":A4_1" function="internal">
        <lane id=":A4_1_0" index="0" speed="8.00" length="5.93" shape="-1.60,507.20 -1.05,503.35 -0.00,501.60"/>
    </edge>
    <edge id=":A4_2" function="internal">
        <lane id=":A4_2_0" index="0" speed="3.65" length="2.34" shape="-1.60,507.20 -0.80,506.00 0.00,505.60"/>
    </edge>
    <edge id=":A4_9" function="internal">
        <lane id=":A4_9_0" index="0" speed="8.00" length="8.26" shape="-0.00,501.60 0.60,500.60 3.35,498.95 7.20,498.40"/>
    </edge>
    <edge id=":A4_10" function="internal">
        <lane id=":A4_10_0" index="0" speed="3.65" length="2.34" shape="0.00,505.60 0.80,506.00 1.60,507.20"/>
    </edge>
    <edge id=":A4_3" function="internal">
        <lane id=":A4_3_0" index="0" speed="6.51" length="9.03" shape="7.20,501.60 4.75,501.95 3.00,503.00 1.95,504.75 1.60,507.20"/>
    </edge>
    <edge id=":A4_4" function="internal">
        <lane id=":A4_4_0" index="0" speed="8.00" length="14.19" shape="7.20,501.60 3.35,501.05 0.60,499.40 -1.05,496.65 -1.60,492.80"/>
    </edge>
    <edge id=":A4_5" function="internal">
        <lane id=":A4_5_0" index="0" speed="3.65" length="4.67" shape="7.20,501.60 6.00,500.80 5.60,500.00 6.00,499.20 7.20,498.40"/>
    </edge>
    <edge id=":A4_6" function="internal">
        <lane id=":A4_6_0" index="0" speed="6.51" length="9.03" shape="1.60,492.80 1.95,495.25 3.00,497.00 4.75,498.05 7.20,498.40"/>
    </edge>
    <edge id=":A4_7" function="internal">
        <lane id=":A4_7_0" index="0" speed="13.89" length="14.40" shape="1.60,492.80 1.60,507.20"/>
    </edge>
    <edge id=":A4_8" function="internal">
        <lane id=":A4_8_0" index="0" speed="3.65" length="2.34" shape="1.60,492.80 0.80,494.00 0.00,494.40"/>
    </edge>
    <edge id=":A4_11" function="internal">
        <lane id=":A4_11_0" index="0" speed="3.65" length="2.34" shape="0.00,494.40 -0.80,494.00 -1.60,492.80"/>
    </edge>
    <edge id=":A5_0" function="internal">
        <lane id=":A5_0_0" index="0" speed="13.89" length="14.40" shape="-1.60,632.20 -1.60,617.80"/>
    </edge>
    <edge id=":A5_1" function="internal">
        <lane id=":A5_1_0" index="0" speed="8.00" length="5.93" shape="-1.60,632.20 -1.05,628.35 0.00,626.60"/>
    </edge>
    <edge id=":A5_2" function="internal">
        <lane id=":A5_2_0" index="0" speed="3.65" length="2.34" shape="-1.60,632.20 -0.80,631.00 0.00,630.60"/>
    </edge>
    <edge id=":A5_9" function="internal">
        <lane id=":A5_9_0" index="0" speed="8.00" length="8.26" shape="0.00,626.60 0.60,625.60 3.35,623.95 7.20,623.40"/>
    </edge>
    <edge id=":A5_10" function="internal">
        <lane id=":A5_10_0" index="0" speed="3.65" length="2.34" shape="0.00,630.60 0.80,631.00 1.60,632.20"/>
    </edge>
    <edge id=":A5_3" function="internal">
        <lane id=":A5_3_0" index="0" speed="6.51" length="9.03" shape="7.20,626.60 4.75,626.95 3.00,628.00 1.95,629.75 1.60,632.20"/>
    </edge>
    <edge id=":A5_4" function="internal">
        <lane id=":A5_4_0" index="0" speed="8.00" length="14.19" shape="7.20,626.60 3.35,626.05 0.60,624.40 -1.05,621.65 -1.60,617.80"/>
    </edge>
    <edge id=":A5_5" function="internal">
        <lane id=":A5_5_0" index="0" speed="3.65" length="4.67" shape="7.20,626.60 6.00,625.80 5.60,625.00 6.00,624.20 7.20,623.40"/>
    </edge>
    <edge id=":A5_6" function="internal">
        <lane id=":A5_6_0" index="0" speed="6.51" length="9.03" shape="1.60,617.80 1.95,620.25 3.00,622.00 4.75,623.05 7.20,623.40"/>
    </edge>
    <edge id=":A5_7" function="internal">
        <lane id=":A5_7_0" index="0" speed="13.89" length="14.40" shape="1.60,617.80 1.60,632.20"/>
    </edge>
    <edge id=":A5_8" function="internal">
        <lane id=":A5_8_0" index="0" speed="3.65" length="2.34" shape="1.60,617.80 0.80,619.00 0.00,619.40"/>
    </edge>
    <edge id=":A5_11" function="internal">
        <lane id=":A5_11_0" index="0" speed="3.65" length="2.34" shape="0.00,619.40 -0.80,619.00 -1.60,617.80"/>
    </edge>
    <edge id=":A6_0" function="internal">
        <lane id=":A6_0_0" index="0" speed="13.89" length="14.40" shape="-1.60,757.20 -1.60,742.80"/>
    </edge>
    <edge id=":A6_1" function="internal">
        <lane id=":A6_1_0" index="0" speed="8.00" length="5.93" shape="-1.60,757.20 -1.05,753.35 0.00,751.60"/>
    </edge>
    <edge id=":A6_2" function="internal">
        <lane id=":A6_2_0" index="0" speed="3.65" length="2.34" shape="-1.60,757.20 -0.80,756.00 0.00,755.60"/>
    </edge>
    <edge id=":A6_9" function="internal">
        <lane id=":A6_9_0" index="0" speed="8.00" length="8.26" shape="0.00,751.60 0.60,750.60 3.35,748.95 7.20,748.40"/>
    </edge>
    <edge id=":A6_10" function="internal">
        <lane id=":A6_10_0" index="0" speed="3.65" length="2.34" shape="0.00,755.60 0.80,756.00 1.60,757.20"/>
    </edge>
    <edge id=":A6_3" function="internal">
        <lane id=":A6_3_0" index="0" speed="6.51" length="9.03" shape="7.20,751.60 4.75,751.95 3.00,753.00 1.95,754.75 1.60,757.20"/>
    </edge>
    <edge id=":A6_4" function="internal">
        <lane id=":A6_4_0" index="0" speed="8.00" length="14.19" shape="7.20,751.60 3.35,751.05 0.60,749.40 -1.05,746.65 -1.60,742.80"/>
    </edge>
    <edge id=":A6_5" function="internal">
        <lane id=":A6_5_0" index="0" speed="3.65" length="4.67" shape="7.20,751.60 6.00,750.80 5.60,750.00 6.00,749.20 7.20,748.40"/>
    </edge>
    <edge id=":A6_6" function="internal">
        <lane id=":A6_6_0" index="0" speed="6.51" length="9.03" shape="1.60,742.80 1.95,745.25 3.00,747.00 4.75,748.05 7.20,748.40"/>
    </edge>
    <edge id=":A6_7" function="internal">
        <lane id=":A6_7_0" index="0" speed="13.89" length="14.40" shape="1.60,742.80 1.60,757.20"/>
    </edge>
    <edge id=":A6_8" function="internal">
        <lane id=":A6_8_0" index="0" speed="3.65" length="2.34" shape="1.60,742.80 0.80,744.00 0.00,744.40"/>
    </edge>
    <edge id=":A6_11" function="internal">
        <lane id=":A6_11_0" index="0" speed="3.65" length="2.34" shape="0.00,744.40 -0.80,744.00 -1.60,742.80"/>
    </edge>
    <edge id=":A7_0" function="internal">
        <lane id=":A7_0_0" index="0" speed="13.89" length="14.40" shape="-1.60,882.20 -1.60,867.80"/>
    </edge>
    <edge id=":A7_1" function="internal">
        <lane id=":A7_1_0" index="0" speed="8.00" length="5.93" shape="-1.60,882.20 -1.05,878.35 0.00,876.60"/>
    </edge>
    <edge id=":A7_2" function="internal">
        <lane id=":A7_2_0" index="0" speed="3.65" length="2.34" shape="-1.60,882.20 -0.80,881.00 0.00,880.60"/>
    </edge>
    <edge id=":A7_9" function="internal">
        <lane id=":A7_9_0" index="0" speed="8.00" length="8.26" shape="0.00,876.60 0.60,875.60 3.35,873.95 7.20,873.40"/>
    </edge>
    <edge id=":A7_10" function="internal">
        <lane id=":A7_10_0" index="0" speed="3.65" length="2.34" shape="0.00,880.60 0.80,881.00 1.60,882.20"/>
    </edge>
    <edge id=":A7_3" function="internal">
        <lane id=":A7_3_0" index="0" speed="6.51" length="9.03" shape="7.20,876.60 4.75,876.95 3.00,878.00 1.95,879.75 1.60,882.20"/>
    </edge>
    <edge id=":A7_4" function="internal">
        <lane id=":A7_4_0" index="0" speed="8.00" length="14.19" shape="7.20,876.60 3.35,876.05 0.60,874.40 -1.05,871.65 -1.60,867.80"/>
    </edge>
    <edge id=":A7_5" function="internal">
        <lane id=":A7_5_0" index="0" speed="3.65" length="4.67" shape="7.20,876.60 6.00,875.80 5.60,875.00 6.00,874.20 7.20,873.40"/>
    </edge>
    <edge id=":A7_6" function="internal">
        <lane id=":A7_6_0" index="0" speed="6.51" length="9.03" shape="1.60,867.80 1.95,870.25 3.00,872.00 4.75,873.05 7.20,873.40"/>
    </edge>
    <edge id=":A7_7" function="internal">
        <lane id=":A7_7_0" index="0" speed="13.89" length="14.40" shape="1.60,867.80 1.60,882.20"/>
    </edge>
    <edge id=":A7_8" function="internal">
        <lane id=":A7_8_0" index="0" speed="3.65" length="2.34" shape="1.60,867.80 0.80,869.00 0.00,869.40"/>
    </edge>
    <edge id=":A7_11" function="internal">
        <lane id=":A7_11_0" index="0" speed="3.65" length="2.34" shape="0.00,869.40 -0.80,869.00 -1.60,867.80"/>
    </edge>
    <edge id=":A8_0" function="internal">
        <lane id=":A8_0_0" index="0" speed="13.89" length="14.40" shape="-1.60,1007.20 -1.60,992.80"/>
    </edge>
    <edge id=":A8_1" function="internal">
        <lane id=":A8_1_0" index="0" speed="8.00" length="5.93" shape="-1.60,1007.20 -1.05,1003.35 0.00,1001.60"/>
    </edge>
    <edge id=":A8_2" function="internal">
        <lane id=":A8_2_0" index="0" speed="3.65" length="2.34" shape="-1.60,1007.20 -0.80,1006.00 0.00,1005.60"/>
    </edge>
    <edge id=":A8_9" function="internal">
        <lane id=":A8_9_0" index="0" speed="8.00" length="8.26" shape="0.00,1001.60 0.60,1000.60 3.35,998.95 7.20,998.40"/>
    </edge>
    <edge id=":A8_10" function="internal">
        <lane id=":A8_10_0" index="0" speed="3.65" length="2.34" shape="0.00,1005.60 0.80,1006.00 1.60,1007.20"/>
    </edge>
    <edge id=":A8_3" function="internal">
        <lane id=":A8_3_0" index="0" speed="6.51" length="9.03" shape="7.20,1001.60 4.75,1001.95 3.00,1003.00 1.95,1004.75 1.60,1007.20"/>
    </edge>
    <edge id=":A8_4" function="internal">
        <lane id=":A8_4_0" index="0" speed="8.00" length="14.19" shape="7.20,1001.60 3.35,1001.05 0.60,999.40 -1.05,996.65 -1.60,992.80"/>
    </edge>
    <edge id=":A8_5" function="internal">
        <lane id=":A8_5_0" index="0" speed="3.65" length="4.67" shape="7.20,1001.60 6.00,1000.80 5.60,1000.00 6.00,999.20 7.20,998.40"/>
    </edge>
    <edge id=":A8_6" function="internal">
        <lane id=":A8_6_0" index="0" speed="6.51" length="9.03" shape="1.60,992.80 1.95,995.25 3.00,997.00 4.75,998.05 7.20,998.40"/>
    </edge>
    <edge id=":A8_7" function="internal">
        <lane id=":A8_7_0" index="0" speed="13.89" length="14.40" shape="1.60,992.80 1.60,1007.20"/>
    </edge>
    <edge id=":A8_8" function="internal">
        <lane id=":A8_8_0" index="0" speed="3.65" length="2.34" shape="1.60,992.80 0.80,994.00 0.00,994.40"/>
    </edge>
    <edge id=":A8_11" function="internal">
        <lane id=":A8_11_0" index="0" speed="3.65" length="2.34" shape="0.00,994.40 -0.80,994.00 -1.60,992.80"/>
    </edge>
    <edge id=":A9_0" function="internal">
        <lane id=":A9_0_0" index="0" speed="13.89" length="14.40" shape="-1.60,1132.20 -1.60,1117.80"/>
    </edge>
    <edge id=":A9_1" function="internal">
        <lane id=":A9_1_0" index="0" speed="8.00" length="5.93" shape="-1.60,1132.20 -1.05,1128.35 0.00,1126.60"/>
    </edge>
    <edge id=":A9_2" function="internal">
        <lane id=":A9_2_0" index="0" speed="3.65" length="2.34" shape="-1.60,1132.20 -0.80,1131.00 0.00,1130.60"/>
    </edge>
    <edge id=":A9_9" function="internal">
        <lane id=":A9_9_0" index="0" speed="8.00" length="8.26" shape="0.00,1126.60 0.60,1125.60 3.35,1123.95 7.20,1123.40"/>
    </edge>
    <edge id=":A9_10" function="internal">
        <lane id=":A9_10_0" index="0" speed="3.65" length="2.34" shape="0.00,1130.60 0.80,1131.00 1.60,1132.20"/>
    </edge>
    <edge id=":A9_3" function="internal">
        <lane id=":A9_3_0" index="0" speed="6.51" length="9.03" shape="7.20,1126.60 4.75,1126.95 3.00,1128.00 1.95,1129.75 1.60,1132.20"/>
    </edge>
    <edge id=":A9_4" function="internal">
        <lane id=":A9_4_0" index="0" speed="8.00" length="14.19" shape="7.20,1126.60 3.35,1126.05 0.60,1124.40 -1.05,1121.65 -1.60,1117.80"/>
    </edge>
    <edge id=":A9_5" function="internal">
        <lane id=":A9_5_0" index="0" speed="3.65" length="4.67" shape="7.20,1126.60 6.00,1125.80 5.60,1125.00 6.00,1124.20 7.20,1123.40"/>
    </edge>
    <edge id=":A9_6" function="internal">
        <lane id=":A9_6_0" index="0" speed="6.51" length="9.03" shape="1.60,1117.80 1.95,1120.25 3.00,1122.00 4.75,1123.05 7.20,1123.40"/>
    </edge>
    <edge id=":A9_7" function="internal">
        <lane id=":A9_7_0" index="0" speed="13.89" length="14.40" shape="1.60,1117.80 1.60,1132.20"/>
    </edge>
    <edge id=":A9_8" function="internal">
        <lane id=":A9_8_0" index="0" speed="3.65" length="2.34" shape="1.60,1117.80 0.80,1119.00 0.00,1119.40"/>
    </edge>
    <edge id=":A9_11" function="internal">
        <lane id=":A9_11_0" index="0" speed="3.65" length="2.34" shape="0.00,1119.40 -0.80,1119.00 -1.60,1117.80"/>
    </edge>
    <edge id=":B0_0" function="internal">
        <lane id=":B0_0_0" index="0" speed="6.51" length="9.03" shape="123.40,7.20 123.05,4.75 122.00,3.00 120.25,1.95 117.80,1.60"/>
    </edge>
    <edge id=":B0_1" function="internal">
        <lane id=":B0_1_0" index="0" speed="8.00" length="14.19" shape="123.40,7.20 123.95,3.35 125.60,0.60 128.35,-1.05 132.20,-1.60"/>
    </edge>
    <edge id=":B0_2" function="internal">
        <lane id=":B0_2_0" index="0" speed="3.65" length="4.67" shape="123.40,7.20 124.20,6.00 125.00,5.60 125.80,6.00 126.60,7.20"/>
    </edge>
    <edge id=":B0_3" function="internal">
        <lane id=":B0_3_0" index="0" speed="6.51" length="9.03" shape="132.20,1.60 129.75,1.95 128.00,3.00 126.95,4.75 126.60,7.20"/>
    </edge>
    <edge id=":B0_4" function="internal">
        <lane id=":B0_4_0" index="0" speed="13.89" length="14.40" shape="132.20,1.60 117.80,1.60"/>
    </edge>
    <edge id=":B0_5" function="internal">