<?xml version="1.0" encoding="UTF-8"?>
<!-- generated on 2023-02-21 22:35:19.944588 by $Id$ v1_8_0+0044-4820708f3d
  options: -n drones.net.xml -b 0 -e 60 -p 1 <doubleminus>random -i 64 -o drones.trips.xml <doubleminus>min-distance 7500
-->
<routes>
    <trip id="0" depart="0.00" from="B0C0" to="B3C3" via="E3E2 C0B0 B1C1 A0A1 A0B0 A0B0 B4C4 E1D1 E0E1 D2D3 B2C2 E1E2 B3B2 E1D1 B0C0 B1B2 E1E2 E0E1 D0E0 A3B3 B2B1 A0A1 D1D0 C2C3 C3C2 B1C1 A1A0 A4A3 A1B1 C3C2 B3B4 C4D4 D2D1 A3A2 C4D4 B0B1 B4A4 D0D1 A3B3 B1C1 B4B3 B3C3 E0E1 B4B3 E1D1 A2A1 A0A1 B3A3 D3E3 C3C4 C0C1 C0D0 C2C1 B2B3 A0B0 C1C2 C4C3 C3B3 D0C0 A0B0 E2E1 A2A3 A1A2 E2E3" />
    <trip id="1" depart="1.00" from="D3C3" to="C2B2" via="D1C1 D2D1 B4B3 D1C1 E4E3 E2E3 B2B1 B2B3 C2C1 B3A3 B3C3 D1D2 E0D0 D3C3 E3E4 E3D3 A3A2 A4B4 D0D1 C1C0 E2E1 E0E1 A1B1 B1A1 D4C4 A3B3 A4B4 A4B4 A1A2 E2E1 D3C3 A3A2 C0D0 D3C3 C2B2 A2A1 D1E1 C1C2 B4C4 D1D2 C3C4 B2B1 C3D3 E4D4 E1E0 A4A3 C1B1 B1B0 B2B1 C3C4 B2B3 D4E4 C1C0 B2C2 E2E3 C3B3 D2E2 D4E4 C1C0 A3A4 B4C4 C1C0 C2C1 A0B0" />
    <trip id="2" depart="2.00" from="B1A1" to="C3B3" via="A2A1 C3C4 E4D4 E3E2 C3B3 D4E4 C2C3 C0D0 B2B3 C3C2 A4A3 C3B3 E1E2 E2D2 D1E1 E0E1 D3D4 C2B2 B4C4 B4C4 D3D4 B2C2 B1B0 E2D2 C3B3 D2E2 E2E1 C4B4 A2A3 B0A0 C0C1 C0D0 D3C3 D1D0 B4B3 D1E1 D4D3 E2E1 C0B0 C3D3 A3A2 E1D1 D3E3 B1B2 E1E0 E4D4 C1C0 D2D3 D1D2 E3E4 C2C3 D2C2 B3C3 C2D2 E1E0 E3E4 D4C4 E0D0 B2C2 B2B3 C4D4 D2E2 D2E2 B3B2" />
    <trip id="3" depart="3.00" from="A3B3" to="C0C1" via="C0C1 D0D1 D1D2 E3D3 D1D2 B2C2 A0B0 B3B4 C3C2 B3B4 B1B0 E2E1 C0D0 C3C4 D1C1 A2B2 C4B4 C1B1 C2B2 C0B0 D4C4 E4D4 C1C0 C0D0 B1C1 C3C2 C3C4 C1D1 C3C2 E1E2 D3D2 D3C3 B3B4 D4C4 A1A2 C1C2 D2D3 C0B0 C2B2 C1C0 C0B0 C4D4 E0D0 C0C1 E2E3 D4E4 B3C3 D1C1 A3A4 D0E0 E1E0 D4E4 D1D0 C3B3 D1C1 C0D0 B3B2 B4C4 C0D0 D0C0 E4E3 B4C4 D2C2 D0E0" />
    <trip id="4" depart="4.00" from="A0A1" to="D2C2" via="C2D2 E1D1 B3A3 C3D3 C2C1 D0D1 D2C2 C2C1 C1C0 A0A1 C3C2 A3B3 C4C3 B4C4 D3D4 E2E1 B1B0 D4C4 E4E3 D1D0 A1A0 D0C0 C0D0 A0A1 D3D2 D4E4 B1C1 B4C4 E0D0 E1D1 E4D4 C1B1 E2E3 D4E4 E1E0 A0A1 B3B2 C0C1 D3C3 C1C2 D4D3 E1E0 A1A0 A2A3 B2B3 C1C2 B2A2 C1C2 E0E1 B0B1 E3E4 E3E2 B0B1 D2C2 B1B2 B4B3 B2B1 D1D2 E0D0 C1B1 E0D0 C4B4 D2E2 D0E0" />
    <trip id="5" depart="5.00" from="A2B2" to="A4A3" via="B0B1 E0E1 C1C0 D2C2 E0E1 C0C1 D2C2 A2A1 A0B0 C0D0 B4C4 C3C4 B0B1 D1D0 E1D1 C1C2 C0B0 C4B4 B0C0 E2E3 B1C1 E3E2 A1A0 D3D4 B1B0 D4D3 E4E3 C3C2 A4A3 E4D4 B0C0 C1C0 C3D3 D1C1 A1A0 D2E2 C1C0 D1D0 D2D3 A1B1 B1B2 B4C4 B2C2 B4C4 C2C3 B2B1 D4E4 C1B1 B2A2 A4B4 A3A4 E3D3 D4C4 C1D1 B2B1 E4E3 B4B3 B0B1 B2A2 D0D1 A1A0 B4C4 B2C2 D3E3" />
    <trip id="6" depart="6.00" from="B0A0" to="B2C2" via="A1B1 C0D0 E3D3 B4B3 E0D0 C3C4 C0B0 B4C4 E4D4 B2A2 B4A4 B1C1 A2B2 D3D2 A1B1 B1B0 D0E0 C1D1 A1A0 E4E3 C2C3 D3D4 B0B1 A1B1 C4D4 D0E0 C0D0 B2C2 C2B2 D1E1 B4A4 E2E1 E3E2 D2C2 A1A0 A2A3 B0A0 C3D3 A0A1 B3C3 C3D3 E2E3 A1A2 E1E2 D1D2 B4C4 C1C2 C1C0 C3C2 E1E2 C0D0 A1A0 C4B4 B1A1 E0D0 D3E3 A1B1 C4B4 C3C2 D4C4 B4B3 D2E2 C4D4 A4B4" />
    <trip id="7" depart="7.00" from="E4E3" to="C3B3" via="E3E4 B2B1 D1D0 A3A2 D0D1 B2C2 B2B3 B1C1 A1A2 D2E2 E1E0 B3B4 C1C2 E4D4 A3B3 E4D4 A0A1 D3D4 A1B1 A1A2 D1C1 D3D4 E0D0 C4D4 D3C3 C2C3 D2C2 E3E2 C1C0 A0A1 C4B4 B1B2 A4A3 C1D1 D4D3 C4C3 B4B3 C2D2 E3E2 B1B0 A4B4 B3B4 A4B4 E2E3 D0D1 B3B2 B3A3 C2C1 A0A1 A4A3 E4D4 C0B0 D1D0 B3A3 E1D1 A2A1 A0A1 C0C1 C4C3 B2B3 D2D3 C1D1 B0B1 E2E3" />
    <trip id="8" depart="8.00" from="B0B1" to="B2B3" via="A1A2 B1C1 E0E1 A4B4 B3B4 C4C3 E1E2 E4D4 D1E1 D0E0 C2C3 E0D0 D1C1 D0C0 D4D3 C1C2 C3D3 C4C3 C1C0 A3A2 D0D1 C0B0 C0C1 B2C2 A2B2 D1D2 B3A3 B4A4 E1E0 B1B0 C4B4 C4C3 B3B4 B3B2 A2B2 B4C4 A1B1 B0B1 B2C2 B4C4 D4D3 C2C3 D2D1 A1B1 A2B2 B2A2 D0E0 B2B1 E4D4 E1E2 E4D4 B4B3 B3B2 B1A1 C0C1 B3B4 A0B0 B4B3 E2D2 D4C4 D2D1 D3D4 B2C2 C2D2" />
    <trip id="9" depart="9.00" from="D4E4" to="A0A1" via="E4E3 E3E2 A4A3 B1B2 C4C3 B1B0 E0D0 C0C1 D4D3 A2A3 C3C2 D2D1 A3B3 D1D0 B1B2 E3E4 B1B0 D3D2 C0D0 D3D2 B4A4 B1A1 D2D1 B1B0 C1C2 C4C3 A0B0 B1A1 C1C2 E1D1 B2A2 C4C3 C0B0 D0E0 A0A1 C1C0 A4A3 C4D4 C0C1 B2A2 B4C4 B2B3 A1B1 C0D0 E1E2 D0E0 B4A4 D4D3 B3A3 A3B3 C4D4 B4A4 D0E0 C1C2 C2D2 C4D4 D2D3 E3E2 D2D3 D4E4 B4C4 C3C2 C0B0 A2A1" />
    <trip id="10" depart="10.00" from="C4C3" to="B1A1" via="D0D1 A1B1 D3D2 C2B2 D1C1 A4B4 A3A4 E4D4 C0C1 A0B0 C2C1 E1E2 D1C1 B2A2 D2E2 A0B0 E1D1 D2C2 E0E1 E2E3 B2C2 A2A1 D1D2 A0A1 C2C3 B4A4 C2B2 D3D4 A2A3 C4C3 D0D1 A1B1 C2D2 B3B2 A3B3 D2C2 E2E1 A1B1 B4B3 A1A0 B0A0 B1B0 D0E0 B3B2 E1E0 A2B2 E0E1 D1D2 E3D3 C4D4 B4C4 A3A2 B4B3 B1B0 D4E4 C1C0 D1D0 D4C4 D2D3 A4A3 D0D1 D3E3 B1A1 B1B0" />
    <trip id="11" depart="11.00" from="A3B3" to="B0C0" via="B4B3 D4D3 D4D3 B3B4 B2A2 B2A2 D2D1 D2D3 B1C1 B3B2 E4E3 D4E4 D1C1 A1A0 B4C4 C3D3 C0C1 C4B4 B4B3 B0A0 D2D1 E1D1 B1B0 B0A0 A2A3 D3D2 C0B0 D0E0 D2C2 B0A0 C4B4 C4B4 C4B4 A1A2 D1C1 D3E3 B2C2 C1D1 B4C4 D2C2 D1C1 E2D2 B4A4 C3B3 D3C3 E3E4 D0D1 A3A2 C0B0 E1E2 D3D4 B3B2 E2E3 A3A2 B1B2 E3E2 A0B0 C0C1 E4E3 E3D3 B2B1 B3A3 A0A1 C0D0" />
    <trip id="12" depart="12.00" from="A1B1" to="D2D3" via="E2E1 C2D2 D1C1 C3B3 E4E3 C1C2 C4B4 E0E1 C0C1 B3C3 A0B0 A4B4 C1D1 B4B3 D2D3 A3A4 C1C0 A3A2 D4E4 D0C0 D3E3 B0A0 D3D2 B2B1 A2A3 E1E2 C4B4 E4E3 A4A3 C4C3 A1A2 D1E1 B3B2 A3A2 A4A3 E4D4 C0B0 E2E3 C1D1 A2A1 B0C0 B4C4 E3E2 C3C2 E3D3 C0D0 B3C3 C4B4 E4E3 D3D2 E0D0 C2B2 D2C2 B4A4 A0B0 A3A2 C0D0 D3E3 D2D1 D1E1 A4A3 C3B3 E0E1 B4C4" />
    <trip id="13" depart="13.00" from="D3D4" to="B4A4" via="A2A1 A3B3 B2B1 A1A0 C3D3 C0B0 C3D3 A3B3 D3D2 B0A0 D3D2 D2E2 E3D3 B1B0 D3D4 C3C2 D2C2 B2B1 A4B4 B3B2 A4B4 E3E4 B0B1 C3D3 D3D4 B3C3 B3A3 E4D4 E3E4 D1D2 A2B2 C2C1 C0B0 B2B3 A2A1 D1E1 C4D4 C2D2 B3B4 D0D1 A2A3 C3C2 E1E0 E4E3 C4C3 A0A1 B1B2 C0C1 A2B2 A2B2 D3D4 D2D3 A4B4 C3B3 D3D2 D3C3 B2B1 E0D0 E4D4 A2A3 A3B3 E3D3 D4E4 B4A4" />
    <trip id="14" depart="14.00" from="D1E1" to="C3C4" via="C3C4 D4D3 B3C3 E3E4 C3D3 C3C2 E1E2 A4B4 D3D2 D2E2 E1E2 A0A1 D3D4 E1E2 C0B0 B1C1 C0B0 E2D2 D3C3 A2B2 C0D0 D1E1 D2E2 B4C4 D4D3 D0D1 A4A3 B1C1 B2C2 D2C2 A2A3 C4C3 E1E2 D3E3 B1A1 D0E0 C0B0 C2D2 B1B0 D0C0 E0E1 C0D0 C4C3 A2A3 D2D1 C3B3 B3B4 D3C3 B2C2 D1E1 D0C0 A2A1 E4E3 E1D1 A3A4 A1A0 D3E3 B2B1 A1A2 D3C3 A0A1 B1A1 D3E3 C2B2" />
    <trip id="15" depart="15.00" from="A1A2" to="E3D3" via="C3C4 C1C2 D3E3 C3C2 D0E0 A3B3 B1B2 B1A1 B1C1 B4C4 D3C3 D3E3 B2B3 C4B4 A3A4 D2D1 E3E4 D4E4 C3B3 D1C1 B1C1 E4D4 C0D0 C1C0 A1A2 B3B2 E4D4 B1B0 A2A3 A3B3 E0D0 D3D2 E3E2 B1B0 A3B3 B1A1 B4A4 B3A3 D0D1 E1E0 D3E3 C0C1 B3B4 C4C3 B1B0 B2B1 D3C3 C3B3 D1C1 E2D2 B2B1 A3B3 D4D3 D3D4 B1C1 D4D3 B1A1 C2C3 D2E2 D3D2 B0B1 D2C2 B0C0 E2E3" />
    <trip id="16" depart="16.00" from="A0A1" to="D2D3" via="B3B4 A3A2 A4A3 D3C3 B3B4 C2B2 B1B0 D3D2 B2C2 A2A3 E2E3 A2B2 B1C1 D4E4 C2B2 E3E4 E2E3 B3C3 D3D4 D4E4 A3A4 A3B3 D4D3 D4D3 D3D4 C2B2 B3C3 C1C0 B1B2 C0C1 C4B4 D1D0 D1E1 A4B4 E1D1 D1E1 C1C0 A2A1 A4B4 E3E2 A0A1 B4C4 A2B2 C1C0 B1A1 B1B0 D0D1 B1A1 B1B0 B0B1 D3D4 D2D1 B3C3 E2E3 C1B1 C1B1 E3E2 B0B1 A1A0 A1A0 A4B4 A2A3 D4C4 B3C3" />
    <trip id="17" depart="17.00" from="B3B4" to="B4C4" via="D0E0 A2A1 D2D3 D1E1 B3A3 A0A1 C4B4 C1D1 B2B3 E0E1 C2C1 D2D1 E1D1 C0B0 C1B1 B2B1 C2D2 B3B2 A1A0 D2C2 E2E3 C1C2 D4E4 D2E2 C4D4 C2C1 C1C2 B2A2 A0B0 D1D2 A2A1 C2C3 A0B0 A4A3 D2D3 B2C2 B0C0 A3B3 C2C1 A4B4 C1B1 B1B0 D3D2 B0A0 B4C4 C3C2 D1E1 D3D4 B4C4 B3C3 D4E4 B1B2 B3C3 A4A3 A2A1 B1A1 A3A2 C2C3 D0C0 A3B3 C0B0 D0E0 A1A2 D2D1" />
    <trip id="18" depart="18.00" from="C0C1" to="A0B0" via="A1A2 B1A1 C4C3 A1B1 A3A2 B1A1 B1A1 E0E1 B3B4 E1E0 D3E3 C0B0 E4D4 C2C1 D3D4 B3B4 C2C3 E1E0 E1E0 A1B1 A3A4 B0B1 A2B2 C1C0 D4C4 D4E4 E1E0 E1E0 B1C1 A3A4 E1D1 B3A3 D0D1 B0A0 D2D1 B4C4 B3A3 A4A3 E4D4 A4A3 A4A3 B3B2 C3C2 E0D0 E3D3 E3D3 B3B2 E4D4 E1D1 B0A0 D4E4 B2C2 E0E1 B4A4 D1C1 B3B4 C1D1 A4B4 B4C4 C0B0 A2B2 C1D1 B4C4 A1A2" />
    <trip id="19" depart="19.00" from="C2B2" to="E1E0" via="C1D1 D1D0 A0B0 A1B1 C1C2 B2B1 C2D2 E1E2 D0C0 B1B0 B1C1 C0D0 E4D4 C2D2 C3C4 B0C0 D0C0 A4A3 E0E1 C3C2 C0C1 B1C1 A2A1 E3E4 B1C1 B3B4 C0C1 A3A4 D2C2 D4C4 B0C0 A3A2 D0C0 D2C2 E0E1 A0A1 C0D0 C0D0 D1E1 E3E2 C1B1 D2D1 D2C2 A2A3 E1D1 D4C4 A0B0 E2D2 B3C3 D0D1 D2C2 C3D3 C3C2 D0D1 B3B2 E0D0 C4D4 A0A1 B2A2 D1C1 C1B1 D1E1 D0E0 B2C2" />
    <trip id="20" depart="20.00" from="C2C1" to="A4B4" via="B3B4 B1B2 B0C0 C2C1 E0D0 C4C3 B1B0 C1D1 E1E0 E4E3 A3B3 A1A0 D1C1 B0A0 E3D3 C2B2 A2A3 D1C1 B2B3 B3B4 B4A4 C0C1 C2C3 C3C4 B3C3 D0E0 B0C0 D4E4 C4D4 C1C0 B4C4 B0A0 B4B3 E2E3 D0C0 C4B4 A1A0 C4D4 E3E2 B4A4 D2E2 E4E3 D4C4 A0B0 D1D2 A3A2 A3A4 B4C4 C3D3 E1D1 A3A4 D1D0 D4C4 D3D4 C3B3 C4C3 B3B2 B1B0 D3E3 B3C3 E4E3 A0A1 A2A3 C3C4" />
    <trip id="21" depart="21.00" from="B3B2" to="C2D2" via="E3E4 C1C2 E3E4 A2A1 E2E1 B2B3 D4C4 C1D1 D3D4 A3A2 E1E2 D2E2 D2E2 B1B2 E4E3 D4C4 C1C2 D1C1 C0D0 B0C0 D2D1 A2B2 A2B2 B4A4 B4A4 E2E1 B1B2 D4D3 D4C4 E3D3 B4A4 D2C2 C1B1 C3D3 E2E1 D2D1 B2B3 B0A0 C0C1 D1D2 E2D2 C1B1 C3C2 D1E1 A1B1 A3A2 E1D1 C1C0 D0C0 C3D3 C1C0 C1C0 E2D2 D4D3 E1E0 C4B4 E2E3 E1E0 C3D3 A3A4 A3A4 E2D2 D3E3 C2C3" />
    <trip id="22" depart="22.00" from="D2D3" to="C0B0" via="D3E3 D3C3 A0B0 E2D2 A2A3 D0C0 B1B0 A2B2 D2C2 D0E0 A1A2 A3B3 C0D0 C3D3 B1A1 A1A2 D2D3 E1D1 C4C3 A2A1 E3E2 B0A0 B2B3 D0D1 D4D3 A4A3 B0A0 E4E3 B4B3 E3D3 E3D3 E2D2 B4B3 C4C3 A1A0 C2D2 C3C2 B4B3 C0B0 D1D0 B2C2 C0C1 E1E0 C0C1 D1D2 A1B1 C0C1 C2C3 D3D2 B3B4 D3C3 D1C1 D2D1 B1A1 D1D2 C4D4 E4D4 B3C3 E1E2 A1B1 B1A1 E1E0 E0D0 C1C0" />
    <trip id="23" depart="23.00" from="C3B3" to="D0E0" via="D2D3 D4C4 C1B1 B3B4 E0E1 B2A2 B1A1 A3A2 E1E0 C1C2 D2C2 B2B1 A3A2 B3A3 B2A2 D2D3 E3E2 D2D1 A4A3 E2E3 C3C2 E3E2 C1C0 A1A0 D3C3 D0D1 A4B4 D0C0 E4E3 C2B2 A3B3 B2B3 B4C4 C2D2 C3D3 A3A2 B2B3 B4B3 C0C1 C3C4 E3E4 B0A0 E1E2 C1C0 A0B0 A0A1 C3D3 A1A0 C3D3 A2A1 B3A3 C4D4 C1D1 B2B3 C3C2 D1D0 B1C1 E3D3 C0B0 A2A3 D4C4 A2B2 D2D1 E1E2" />
    <trip id="24" depart="24.00" from="D2E2" to="D2E2" via="E4E3 E1E0 B3B4 D3C3 B1B2 A2A1 A2A3 C1C2 A4B4 B1B0 A1B1 D4E4 A4A3 D2D1 D4E4 E1D1 E4E3 E2E1 B0B1 E1E2 E2E1 B0A0 B1C1 E1E2 C0D0 C2C3 A1B1 E4D4 B2B1 A2A1 E3E4 C3D3 C1B1 C0C1 B2B3 C4C3 C2C3 C3D3 A4A3 C1B1 E0E1 E4E3 E4E3 B4A4 B3B2 D1D0 D4E4 B2B3 C1D1 D0C0 A4B4 C2C3 E0E1 A4A3 D3C3 E4E3 B3B2 E1E2 D0E0 E0E1 D1E1 C4C3 E0E1 E1E2" />
    <trip id="25" depart="25.00" from="B1B2" to="C2C1" via="C2B2 E1E2 D2C2 D4E4 C1D1 E4D4 E2E1 A3A2 B2B3 E1E0 C1C0 C1C2 D1E1 C1D1 C2C1 B3B2 C2B2 E3D3 D4D3 C1C0 D2D3 B0C0 A3A4 D3E3 C0B0 C1C0 B3C3 D4C4 A0B0 E0D0 A1A2 D1E1 E3E4 B1C1 B0A0 A2A1 E2E3 A0A1 B3B2 A1A2 D1D0 B0C0 B4B3 D3D4 C3C4 D3C3 A4B4 A0B0 B1B2 D3D4 B4A4 E2E3 A3A2 E2D2 B2B3 B0A0 C0C1 E4E3 D2D1 E3E2 D3E3 B1A1 D4C4 D4C4" />
    <trip id="26" depart="26.00" from="E1E0" to="D0D1" via="E1E2 A4A3 A3B3 D3D2 B1C1 B2B3 D1E1 B1B2 D2D1 D2C2 C0B0 E2D2 B0C0 B0C0 E1E0 B3B4 B1B2 E4D4 E1E2 C1B1 C0D0 D2E2 C1B1 A0B0 D4D3 D0E0 B4C4 A1B1 B3A3 D0E0 A1A2 B1B2 E1D1 E0E1 C2C3 C0B0 D2D3 A4A3 A0B0 B3C3 B4B3 B4B3 C1B1 A4A3 C1C2 D1D0 D4D3 D1D0 C3C4 C3C2 C3D3 D4C4 C4D4 B2B3 B2B1 A1B1 E0E1 D1D0 A2B2 B3A3 D1E1 B4A4 E3E2 C2C1" />
    <trip id="27" depart="27.00" from="B4C4" to="C4B4" via="D0E0 B1B2 C0D0 D2D3 B3B4 C1D1 E0E1 A3A4 A2A1 D2D1 A1A2 C2D2 D0D1 C0D0 A0A1 D3D2 A0A1 D3E3 C3C2 C3C2 D2E2 B4A4 C3C4 C0D0 A1B1 A1B1 D3D2 A3A4 E0D0 E3E4 D3E3 C2D2 D0C0 C3C2 D1D0 B1A1 B4A4 B0C0 B2A2 C3C2 C0D0 D2D3 D1D2 E3E4 C4C3 B1A1 D4D3 B3B2 D0D1 B2B1 B3B2 D4E4 E2D2 C0D0 C4D4 E4D4 E2E1 B4B3 B1C1 B3B2 B0C0 D0C0 C4B4 B4A4" />
    <trip id="28" depart="28.00" from="D1D2" to="B3A3" via="A1A2 B0A0 B2B3 B1B0 E1E0 E1E2 D0E0 A3B3 D4E4 E3E4 E3E2 D3C3 A4A3 B0A0 A4A3 D1C1 B2C2 B1C1 C2B2 A2A1 B4B3 D2D1 C2C1 D0E0 D4D3 E0D0 D0C0 D2E2 B2A2 C1B1 C3C4 D1D2 D3C3 A0A1 B4C4 C3B3 D0C0 B0B1 B3C3 A1B1 A1A0 E2D2 E1D1 E2E1 C3C4 D1D0 C4C3 A3A2 A3A4 E2E3 C2C1 B3C3 D2C2 B1C1 B4C4 C3D3 A0B0 B3A3 D0C0 A1A0 A2A1 A4B4 A1A2 C1B1" />
    <trip id="29" depart="29.00" from="A0B0" to="C1B1" via="B1A1 E0E1 C2B2 B3B2 D2D3 C0C1 E4E3 E3E4 B3A3 B0C0 C0C1 A2A3 C3D3 E0E1 C3C4 B0C0 C3D3 E1D1 D2D3 D1E1 C4C3 B1B2 C0C1 B0B1 A1B1 D1D0 B2B1 C2B2 C2D2 C1D1 C2C1 E2E3 A2B2 A4A3 B0B1 D3D4 E1E2 E2D2 A2A3 E2E1 D2E2 C2D2 C0C1 A0B0 A3A2 D3D4 A0A1 A1B1 C3C4 C2D2 B3C3 D1D0 B0A0 D0E0 E2D2 A4B4 A3A4 A3A4 D4D3 B2A2 A2B2 E3E4 C0B0 E4E3" />
    <trip id="30" depart="30.00" from="E1E2" to="B2C2" via="B1A1 B3B2 B3C3 E2E3 A0B0 C4C3 B2B1 E3E2 D2C2 B3A3 B3C3 B3B2 D3D4 E2D2 C1B1 D3C3 A3A4 A1A0 D1D0 A1A2 C4D4 B4A4 A3B3 C0C1 D0D1 B0C0 C0D0 C0D0 B4A4 D1D2 C4C3 C4B4 C1B1 D3D4 C4C3 B0A0 C1C2 A3A4 D3D2 A0A1 A1A2 D4C4 D1D2 D1E1 E2E1 C4B4 D4D3 D1D2 C4D4 E2E3 B3B2 A3B3 D3D4 B3C3 C4D4 C2B2 B4B3 D0C0 C3D3 D3E3 D1D2 D1D0 D2C2 D2C2" />
    <trip id="31" depart="31.00" from="B3B2" to="E0D0" via="C4D4 D1D0 B1B2 D3E3 A4A3 D2C2 B2C2 B0C0 A2A1 D1E1 A1A2 A2B2 A4B4 A2A1 C3C4 E2D2 C4C3 D3D2 B0B1 E3D3 B4B3 B2B3 A3B3 C2D2 B4A4 E1E0 D2C2 A2A3 C1B1 B3B4 D0C0 C2B2 C1C2 B2C2 B0B1 D3C3 B1B2 D2E2 E4E3 C2C3 E3E2 B2C2 B0C0 D1D2 E3E2 A3B3 C1C2 E3E4 B3B2 C2B2 B0C0 D3E3 D3D2 E3D3 C4C3 E4E3 D2D3 B3A3 E2D2 A3A2 C1D1 B4B3 D4C4 B0A0" />
    <trip id="32" depart="32.00" from="E4E3" to="E1E0" via="A2B2 D4C4 E2E3 D3E3 C3C2 A1A2 A3A2 B1A1 D1C1 B3C3 A0B0 B0A0 B3A3 D4C4 B2C2 B3A3 C4C3 A3B3 C1C2 A2A3 C0D0 B4B3 D2D1 B1A1 D3C3 A3A4 A3A2 C1C2 A2A3 C4B4 B1B0 B4C4 D0D1 B3A3 E1D1 C1B1 E4D4 A1B1 E2E1 B4A4 E1D1 A3A4 A1B1 C4B4 C4B4 B4A4 E1E0 A0A1 A1A0 C0B0 B1B0 B2C2 C4B4 E3E2 B2B1 D2C2 E0E1 D0E0 C2C1 C2C3 A0A1 A3A4 B3B2 E3D3" />
    <trip id="33" depart="33.00" from="B0A0" to="D1D0" via="E3E2 B1B2 A3A2 A1A0 A0A1 C3D3 B2B1 D3E3 B4C4 E1E2 D0D1 C0D0 B1B0 C3C4 A4A3 D1C1 C4B4 A2A3 C2B2 E2E1 D2D1 B2A2 C1B1 E1E0 B1B0 D4D3 D2E2 D4C4 D2C2 E2E1 C4D4 E2E1 D2C2 A3A2 D2E2 B4B3 A4B4 B4B3 C0D0 E4D4 B3C3 D3C3 D1D2 D1D2 D2E2 D4E4 B3C3 B1B2 C3C2 C1D1 E3D3 C2D2 C2B2 A3B3 C3C2 B3B4 E3E2 C1D1 B3C3 C3C2 B4C4 D1D0 D2D3 E1E0" />
    <trip id="34" depart="34.00" from="E1E0" to="E3E2" via="E1E2 C0B0 C2C1 A2A3 C2D2 D3D2 C3B3 C4C3 D4C4 C1C0 A2A3 A3A4 C3B3 B1C1 D4E4 D3C3 D2D3 D0E0 C1D1 E2D2 E3E4 A1A2 C1C2 E2D2 A1A2 D1C1 B4C4 C3B3 D2E2 D1E1 E0D0 B3C3 A0B0 D4D3 D4C4 E2D2 A2A3 D0E0 C3D3 B2B3 E1E2 C0B0 B0C0 B2B1 E2D2 D4C4 A1A2 D3E3 E2D2 C2B2 E2D2 D1C1 A0A1 E2E3 C1C2 D4C4 C4C3 C3C4 C3B3 A0B0 D0D1 E1E2 D3C3 C1C0" />
    <trip id="35" depart="35.00" from="D2D1" to="C0D0" via="E2E3 E1E0 C3C2 C2D2 B2B1 B3A3 B2C2 C2C1 B3B4 B2B3 E0D0 B3B2 C0D0 D2D1 D0E0 D4D3 D1D2 C4D4 B0A0 D2D3 A4A3 D1D0 E3E4 E3E2 C2C3 C2B2 D2C2 D3E3 B3C3 C3B3 C3B3 D1E1 D0D1 A4A3 D2D1 B0A0 E1D1 D3D2 A2A3 D3D4 C3D3 B2A2 A2B2 D2C2 B2A2 A2A3 D0C0 A1A2 B1B2 B3C3 D0E0 B2C2 A3B3 E3D3 A1A0 C0C1 E0E1 A4A3 C3B3 C1B1 D3D2 C0D0 A1A2 C0B0" />
    <trip id="36" depart="36.00" from="D3D2" to="D0D1" via="B2B1 D3D2 A1B1 D0C0 B2B1 A1A0 B1A1 D3E3 D3C3 C3C2 D0D1 A4A3 B2B1 C0D0 B0A0 A2A1 C3B3 D1D0 C0C1 D0E0 A1A2 B0C0 A3A4 B4B3 A0A1 C1C0 E4D4 E2E1 B3A3 C1B1 D2D3 B3B2 E0E1 D3D4 B4A4 E2E3 A2A1 D3D2 A3B3 B1C1 E3D3 A3A2 E0E1 B3C3 D4C4 D1D0 A1A2 E2E3 C2B2 E2E1 B2B1 D0D1 D4C4 E1E0 B2B3 E1E2 C3C2 D3D2 A2A1 D2D3 D3D2 B1B2 C3B3 D0C0" />
    <trip id="37" depart="37.00" from="D2D1" to="E2D2" via="B1A1 B4B3 B2A2 C2D2 A0A1 A4B4 E1E0 A1A0 C4C3 B1B0 A4B4 D0C0 A1A2 A4A3 C2C3 A3B3 A1B1 C2B2 D4C4 C3C2 B3C3 E2D2 B2C2 C3C4 B4B3 C2D2 E3E4 B0B1 D4D3 A0B0 D0D1 B4A4 E3D3 B2B1 E3E4 A3A2 B4B3 B1B2 C0B0 C4C3 D3D4 D2E2 E2E3 D1D0 E0D0 B1B0 D4D3 C0C1 B4C4 A2A3 E1E2 D1E1 B2B1 C0B0 A0A1 D1D0 B4B3 A1A0 B2B3 E2E3 D0C0 D3D4 A3B3 D4D3" />
    <trip id="38" depart="38.00" from="C1D1" to="B0A0" via="B4B3 D3D2 D0D1 A2B2 E4D4 A3A4 C4B4 B2B1 B1C1 B4A4 A1B1 C1D1 C3B3 A0A1 B3B4 E2E1 E1E2 A2A3 A2A3 D4D3 B3B4 A4B4 B3B4 B4C4 B4B3 C1B1 C2D2 C1C2 B3B2 D1D0 E0D0 E4D4 A4A3 B3A3 B2C2 D3D2 B4B3 A1B1 C0C1 D0E0 B3A3 A1A0 C1C2 D3E3 A0B0 E1E0 B0C0 E4D4 A0B0 D4C4 C1B1 D1D2 D4E4 B4C4 C1D1 B3C3 A2B2 A4A3 C0D0 B2C2 D0D1 A3A2 D3D2 B3A3" />
    <trip id="39" depart="39.00" from="A2B2" to="B3B4" via="C4C3 C1B1 E4E3 B0B1 B2A2 B1C1 D2E2 E2E3 A1A2 E2D2 A0B0 D1D2 A3B3 B1B0 A0B0 B0B1 D3E3 A0B0 A0A1 C4C3 C3B3 D3D2 B2A2 D1C1 B3B4 C3C4 B3C3 E1D1 C4D4 D0D1 D1D2 E0D0 B2C2 C0B0 E3E2 A2B2 B0A0 C0B0 D3E3 C4D4 C4D4 B0B1 E2E1 B4A4 C4C3 B3B2 B4C4 D3C3 D3D2 B0A0 A1B1 C2C3 E4D4 A3B3 B4A4 D2D3 B1A1 D3D2 D2E2 C2D2 A3A4 D1C1 E3E2 D3D4" />
    <trip id="40" depart="40.00" from="B1B0" to="B2B1" via="B3C3 A3A2 E3D3 B3A3 D4E4 A1A2 C3C4 C3D3 D1C1 B2C2 C0C1 D3C3 D3D2 C4B4 E3D3 E1E0 B1B2 A1A0 C3D3 C1D1 D1E1 C4D4 A3A2 D0C0 B4C4 E0E1 E1D1 E3E2 C4B4 B3C3 C2B2 A4A3 B0C0 D3C3 B4A4 E0E1 B2B1 B2B3 C0C1 C2B2 C3D3 A3B3 C2C3 B1A1 E1D1 D3E3 A3A4 A2A3 A4B4 E0D0 C1C2 D0D1 C4C3 E0D0 C1C0 B3B4 B1B2 A1A2 B2A2 E1E2 E2E1 C2D2 D2E2 B2B1" />
    <trip id="41" depart="41.00" from="C4D4" to="E1E0" via="B2C2 E1E0 A2A3 A1A2 C0D0 B1B2 C1B1 D4D3 A4B4 A1A0 A2A3 C1B1 D0C0 A0A1 E3D3 B0A0 D0C0 B0B1 D2C2 E2E1 B1B0 B0C0 C4D4 B1C1 A3A4 D3D2 B1A1 C2C1 B4B3 B3A3 A3A4 C1B1 C3D3 A1A2 A2A1 C1C2 B4B3 C2D2 A2A1 A0A1 D4E4 C0C1 E1D1 A2A1 E0E1 B2A2 C3D3 C2C1 E4D4 B1A1 C2B2 E4D4 D2C2 B2A2 C1C2 D2D1 C2C3 D2D3 B1C1 E2D2 D1E1 C1D1 D3C3 C1C0" />
    <trip id="42" depart="42.00" from="D0D1" to="B2C2" via="E3D3 A0B0 A3A2 C3B3 E2E1 B1B0 A2A3 A2B2 B2B3 B4C4 B0A0 D1D2 C1C2 E0E1 A1A2 B2C2 A3A2 B3B4 B0B1 E0D0 B2C2 C4B4 A4B4 B4A4 D2E2 C4D4 A3A4 A4B4 A0B0 D4D3 D3E3 B1B2 C3D3 B2C2 E0E1 C1B1 B1C1 B0A0 B4A4 E3D3 E2E1 D4C4 A0B0 B0B1 E4D4 B2B3 C3D3 E3D3 A1A0 C4B4 C3C2 C3C2 B1B2 E2D2 D4D3 A3B3 D0E0 A4B4 E1D1 E2E3 C1C2 D1D0 D0E0 B2B1" />
    <trip id="43" depart="43.00" from="D1D2" to="B0B1" via="C0C1 B3A3 B3A3 A2A1 D4E4 E0D0 C4D4 E3E2 A2A3 D3D2 B3C3 E1E2 D3D2 B2A2 B2A2 B2C2 B1A1 E4D4 E2E1 B3B2 C0B0 E3E4 B0C0 B1B0 E3D3 D1E1 A1B1 D3C3 B0A0 C0C1 E1D1 B4C4 C1C0 A0A1 A3A2 A3A4 D2E2 C2D2 D4D3 B0A0 B2A2 B2A2 D1C1 D4D3 B3C3 B1C1 A0A1 D0E0 A0A1 D2D1 A1B1 B4C4 E1D1 C2B2 C3C4 D2D1 D3D2 B3C3 A0A1 A1A0 D4D3 D3D2 D2D1 C4C3" />
    <trip id="44" depart="44.00" from="A2A3" to="B1A1" via="C2B2 C0C1 C1C2 B2C2 B1A1 A3A2 D2C2 C0C1 E1D1 C0C1 E0D0 D3C3 C3B3 A0B0 B2B1 E3D3 E0D0 E2E1 D4D3 C1C2 A0B0 D0D1 C2C1 E3E2 B2B1 A0A1 B0C0 C2C1 A2A3 B0A0 B2B1 B3B4 A1A0 C0C1 C1D1 C0C1 C1C2 A1A2 A2A1 C3C4 B1A1 C2C1 E1E0 A2A3 A2A1 C2C3 C3C4 D4C4 A4A3 D2D1 C2C3 B2A2 E1E2 B4B3 E2E1 D1C1 D0C0 A2A3 E0E1 C0B0 C2C1 B4A4 D4C4 A1B1" />
    <trip id="45" depart="45.00" from="B4A4" to="E1D1" via="B0A0 C4B4 E0E1 B0B1 E3E2 E2D2 A2A3 B2A2 B3C3 D3E3 D1D2 E1E2 D1E1 A3A4 B1A1 B0C0 C0B0 A4A3 C4D4 D2D1 D4E4 A3A4 A3B3 C4B4 D3D4 E0E1 D3D4 B3C3 E2E1 C2C3 C3C4 E1D1 A1B1 B2B3 A2A1 A3A4 B3B2 B2A2 D1E1 A2A1 B4B3 D2D3 D4C4 A2B2 C0C1 A3A2 D0C0 B1A1 A2A3 D2D3 C1B1 D0C0 E3E4 D1E1 D4D3 C3D3 D2C2 D0D1 E0E1 C4D4 A1B1 C2C3 B1B2 A1B1" />
    <trip id="46" depart="46.00" from="C4C3" to="D3D4" via="C0B0 B1C1 C2D2 A0B0 E2D2 A0A1 D4D3 A0A1 A2A1 D3E3 D2D3 E2D2 B1B2 B1A1 D0D1 B3B4 D1D2 D0C0 C2D2 B3B2 C3D3 C3C2 E2D2 D1E1 C0D0 C0D0 D2D3 C2B2 D4D3 B1B2 A2A3 C2B2 B0A0 C4D4 D2C2 A0B0 C4C3 B1C1 A3A2 C3C2 C2B2 A2A1 C1D1 A3B3 B1B0 E1D1 B1B0 D3C3 A3A2 B2B1 D3C3 A0A1 B1B2 D4C4 E2D2 A1A2 A4A3 E1E2 A1A2 B0B1 D1D0 C2C1 A4A3 E2E3" />
    <trip id="47" depart="47.00" from="A2B2" to="B4B3" via="D2E2 B2C2 C3C2 B2A2 E3D3 E1D1 A1A2 D3D2 E3E2 D2D3 C2D2 E2D2 A3B3 A1B1 A2B2 B2B1 C1D1 C0D0 A0A1 E0D0 C3B3 C0D0 E4D4 C2B2 E1E0 C2D2 E0D0 B1B0 E4E3 D0C0 D2E2 A3A4 C0C1 B2C2 D3C3 D2C2 A1A2 E0E1 D2D3 E3D3 C2C3 E1E2 B0C0 D4C4 A2B2 D4C4 A3A4 D0D1 D2D3 A2A3 E3E4 E2E1 A1B1 A3A4 B0A0 B0C0 B0B1 B3C3 D0C0 B1C1 D3D4 C4C3 E1D1 A1B1" />
    <trip id="48" depart="48.00" from="D0E0" to="B0A0" via="A3A4 B0B1 E4D4 D4C4 D0D1 B2B3 A4B4 A2A1 B1C1 C4B4 D0E0 B3A3 A2B2 D2D3 C0C1 A2A1 B4B3 A2A1 D2E2 E0E1 E2E3 C4C3 C3D3 C1D1 B2C2 D1C1 B0A0 D3E3 D4C4 E1E0 B4A4 B1B0 B0C0 C4B4 E3E4 A4B4 D1C1 E3E2 E0E1 D2D1 B4A4 A2A3 C1C2 E2D2 B0A0 B4B3 C0B0 D3D4 B0B1 B0B1 B3B4 B2A2 E3E4 E1E2 C1B1 D4D3 C3C4 B0A0 C0B0 D3C3 C2C1 B2C2 C2C3 E0D0" />
    <trip id="49" depart="49.00" from="B3C3" to="E0D0" via="A4A3 A4A3 C2C3 A4A3 E1D1 C1C0 C3B3 D2D1 A3A4 E1E2 D1D2 A1A0 D4C4 D1D0 A4B4 D0E0 E3E4 E3E4 D2C2 E1E0 A1B1 B1B0 B2B1 B1A1 D3D2 E3E4 A0B0 C3C4 D1E1 B4A4 D3D4 A3A2 E3D3 E3E2 B0C0 E2E1 A0A1 E4E3 D3C3 D3D2 E0E1 B2B1 D1D0 E0D0 C1B1 D1C1 A3A2 D1D2 E1E2 B3B4 D3C3 B1A1 A1A0 B0B1 B2B1 C1C0 B1C1 B1B2 D3E3 B3C3 B4C4 A2A1 D4D3 C3B3" />
    <trip id="50" depart="50.00" from="E1D1" to="D0D1" via="C4C3 C3C4 C4C3 D0D1 B2C2 B4B3 D3D2 C4B4 A1A0 E2D2 D2E2 E3D3 E2E1 B0B1 A0A1 D0D1 B4A4 E2D2 E2D2 A1A2 E4E3 D2D1 E1D1 D4C4 C0C1 B1A1 A2A1 A0A1 C4C3 B3A3 D4C4 D1E1 C1D1 C3C4 B2C2 A4B4 A4A3 D3E3 A0B0 C2C3 B2C2 D4C4 A3B3 C2B2 B0C0 C0C1 B3C3 D0E0 C0C1 E3E4 D1D0 C0C1 A1B1 D2D1 E3D3 A2B2 B0A0 B3B2 E2E3 C2D2 D3D4 C2C3 D0C0 C0C1" />
    <trip id="51" depart="51.00" from="A1A0" to="B1B2" via="B2B1 B1A1 B4A4 B3B4 A3B3 E2D2 E3E4 B2A2 A3A2 C3C4 D4C4 D1E1 A4B4 E1D1 D1E1 D2E2 C1C0 B3B4 B0B1 B2B3 D2C2 E3E2 C0B0 C1C2 C0B0 C4B4 C2B2 D0C0 E1E2 A1A0 D2D1 E0E1 E4D4 A0A1 D4C4 C2B2 A3A2 B2B3 A3A4 A0A1 D3D2 E2E3 C4B4 C1C0 B0B1 C1C0 D3D2 E2D2 C0C1 D2C2 C3C2 C2B2 B2A2 C2D2 C3C2 B4B3 B3B4 D2E2 D3E3 E0E1 D2C2 E3D3 C2C1 D3E3" />
    <trip id="52" depart="52.00" from="E3D3" to="D3D2" via="C0C1 C2D2 D1E1 D0D1 B0C0 C3C4 A4B4 D3C3 A1B1 B4C4 C2D2 C3C2 B2C2 D4D3 B1A1 E0E1 A2A3 D1D2 B4A4 C2B2 E0E1 A0A1 E2E1 B1B0 C2B2 E3E4 A4B4 D0D1 A2A3 A2B2 C3C2 E2D2 A2A3 E3E2 C2D2 E4E3 A4B4 C2C3 C4D4 A1B1 B0A0 D4E4 A1A0 A2A1 C3D3 B2C2 D3D4 B1B0 A0A1 C3C2 E3E2 E0D0 B4B3 D1D2 C3B3 D2D1 A1A0 D3D2 B1C1 C0D0 B0C0 C4B4 D3D2 E1D1" />
    <trip id="53" depart="53.00" from="E2E3" to="B3B2" via="B1B0 B4B3 D1D0 E1D1 E3D3 A2A3 A0A1 B1C1 D1E1 B1C1 C2C1 C1C0 B2B3 B0B1 C2C1 D0D1 B4B3 D0C0 A0B0 D2D1 B2B1 C1B1 B2B1 D3C3 A1A0 B2C2 B1C1 B2B3 D2E2 E3D3 C1B1 C0D0 C3C4 B1B2 C1B1 C4B4 A1A2 C2C1 C2C3 D2D1 B1B0 B0A0 A4A3 D3D4 D0E0 A1A2 D0D1 B3C3 D1D2 B1B2 B1C1 A3B3 E2E1 A1A2 D3C3 E0D0 B1B2 C4C3 B2B1 D2C2 C4C3 A3B3 A2A1 C0D0" />
    <trip id="54" depart="54.00" from="E3D3" to="B2B1" via="D2C2 E3E4 D4D3 E4E3 E2E1 B1B0 B3B2 E2E3 D3C3 E2E1 D3C3 C0D0 E2D2 B4A4 C0B0 B4C4 E3E4 B1C1 C0C1 E3E2 C2C1 B2A2 B1B2 A0B0 E1E0 D2C2 B4A4 E1D1 A1B1 D1E1 B4B3 B3B4 C4B4 D3D4 C0B0 B3C3 C1B1 C0B0 C2C1 B1B2 A4B4 A0A1 E4E3 D1E1 D3D4 B3B4 A4A3 C4B4 E2E1 B4C4 E3D3 D1C1 D4D3 C2B2 B3B4 C1B1 B1C1 A3A2 C3C4 B4C4 C1C2 C0D0 A2B2 C0C1" />
    <trip id="55" depart="55.00" from="C3C4" to="C0D0" via="E3E4 D2C2 C3C2 D3D4 E2D2 A3A4 B0C0 C0C1 E0D0 B4B3 D2D3 D2D3 D4E4 C4D4 D3C3 D0D1 A4B4 D2C2 B2B1 A1A2 D3C3 B0A0 C1C2 D2D3 D4C4 A2B2 D2D1 E0E1 A2A1 B1B0 C0C1 C0C1 E2E3 D4E4 D4E4 D3C3 B3A3 E0E1 E0D0 D4D3 E3E4 A1A2 C4C3 E3E2 A3A4 B0C0 C4C3 C2D2 D2E2 A0B0 D3E3 B1B0 C0B0 E2E1 A3A2 C3C2 B1B2 E4E3 C4B4 D2D3 D1D2 D3D2 C0B0 B2B3" />
    <trip id="56" depart="56.00" from="E4E3" to="A3B3" via="B4B3 C0B0 C0B0 D3D4 C4C3 B3A3 B1A1 D2D3 B2A2 C3C2 C2C3 C2B2 C1B1 E2E3 C4D4 B0A0 E1E2 B2A2 B2C2 B4C4 B2A2 A2B2 B2C2 A3B3 E4E3 C1B1 D1C1 D2C2 A4B4 C2D2 D0C0 E4E3 D4E4 D2D1 A3B3 E2E1 C0B0 B2B3 B4B3 B1B2 B4A4 C1C2 A3B3 E4D4 D3D2 C4C3 D3C3 E0D0 C0C1 B4B3 C2B2 B0B1 C3C2 A1A2 C0B0 C0C1 D4C4 A2B2 E4D4 A2B2 C3B3 C2C1 B1B2 D0C0" />
    <trip id="57" depart="57.00" from="A2B2" to="E3E2" via="B1A1 B4B3 E1D1 D2E2 C1C2 E2E1 E3D3 B4C4 D3C3 B0C0 D2D3 A4A3 A0A1 A2A1 A3A2 A1A0 C2B2 B4C4 E4D4 A1A2 D2E2 D2C2 C4D4 D4E4 A1A2 C2D2 D0E0 A1B1 B3B2 A4B4 C3C2 C0D0 C1B1 D2D3 B4A4 E4D4 C3C2 C2C3 B1B2 A2A1 E4D4 C0C1 A2B2 C3B3 D2C2 C1D1 E1E2 A2A1 C4D4 D0C0 C3B3 A4B4 C1B1 E4D4 C2D2 A1B1 A2B2 B1B2 A0B0 B1C1 B4C4 A1A0 A2A3 E3E4" />
    <trip id="58" depart="58.00" from="E4E3" to="B0A0" via="E0E1 E1E2 C4D4 B3C3 C0C1 E4D4 C2B2 E4D4 D1D2 B1B0 D1D2 E1D1 D2D3 A0B0 E2E3 A2A1 D0C0 A2A1 A1A0 A0A1 C1D1 C2C1 D4C4 B0B1 E3E2 E2D2 E1D1 B4C4 D3D2 E2E1 E0E1 B3C3 C1B1 B1B0 E3E4 B2C2 C4B4 C2D2 B4A4 E3D3 C1B1 A1B1 E0E1 A3B3 C4D4 D4C4 D2C2 A2A1 A2A3 A4A3 A1B1 B0C0 D3D2 D4E4 B3B4 D1E1 B4C4 A0B0 E0D0 B4B3 E3E4 E2D2 B4C4 A2B2" />
    <trip id="59" depart="59.00" from="A3A2" to="C4D4" via="B1A1 D0C0 B2C2 D3D2 E0E1 B1C1 C3C2 C0B0 E3E2 B2B1 C2C1 E3D3 A1B1 C0C1 B2B3 D2E2 A1A0 D3D4 D1D2 A3B3 B4B3 E0D0 D3D2 A2B2 A1A2 E4D4 D0C0 B1C1 A3B3 A1B1 D4E4 A3A4 C3C4 C1C0 D1D2 E1D1 C4D4 A4A3 D4D3 D4C4 A1B1 E2E1 E1E0 E4E3 D2E2 E3D3 D2D1 C4D4 D1D0 A4A3 B3A3 D1C1 E4D4 E1E0 C1D1 D3C3 C1B1 A3B3 C0D0 E3E4 D1C1 C4B4 D0E0 B2C2" />
</routes>
