<?xml version='1.0' encoding='us-ascii'?>
<additional xmlns:xsi="http://www.w3.org/2001/XMLSchema-instance" xsi:noNamespaceSchemaLocation="http://sumo.dlr.de/xsd/additional_file.xsd">
	<poly id="building-0_0-0_0" type="building" fill="1" layer="-1.0" color="128,128,128" shape="10.0,10.0 47.5,10.0 47.5,47.5 10.0,47.5 10.0,10.0" height="16.641" />
	<poly id="building-0_0-0_1" type="building" fill="1" layer="-1.0" color="128,128,128" shape="10.0,57.5 47.5,57.5 47.5,95.0 10.0,95.0 10.0,57.5" height="32.536" />
	<poly id="building-0_0-0_2" type="building" fill="1" layer="-1.0" color="128,128,128" shape="10.0,105.0 47.5,105.0 47.5,142.5 10.0,142.5 10.0,105.0" height="44.284" />
	<poly id="building-0_0-0_3" type="building" fill="1" layer="-1.0" color="128,128,128" shape="10.0,152.5 47.5,152.5 47.5,190.0 10.0,190.0 10.0,152.5" height="24.699" />
	<poly id="building-0_1-0_0" type="building" fill="1" layer="-1.0" color="128,128,128" shape="57.5,10.0 95.0,10.0 95.0,47.5 57.5,47.5 57.5,10.0" height="30.393" />
	<poly id="building-0_1-0_1" type="building" fill="1" layer="-1.0" color="128,128,128" shape="57.5,57.5 95.0,57.5 95.0,95.0 57.5,95.0 57.5,57.5" height="48.585" />
	<poly id="building-0_1-0_2" type="building" fill="1" layer="-1.0" color="128,128,128" shape="57.5,105.0 95.0,105.0 95.0,142.5 57.5,142.5 57.5,105.0" height="21.341" />
	<poly id="building-0_1-0_3" type="building" fill="1" layer="-1.0" color="128,128,128" shape="57.5,152.5 95.0,152.5 95.0,190.0 57.5,190.0 57.5,152.5" height="21.431" />
	<poly id="building-0_2-0_0" type="building" fill="1" layer="-1.0" color="128,128,128" shape="105.0,10.0 142.5,10.0 142.5,47.5 105.0,47.5 105.0,10.0" height="29.643" />
	<poly id="building-0_2-0_1" type="building" fill="1" layer="-1.0" color="128,128,128" shape="105.0,57.5 142.5,57.5 142.5,95.0 105.0,95.0 105.0,57.5" height="28.367" />
	<poly id="building-0_2-0_2" type="building" fill="1" layer="-1.0" color="128,128,128" shape="105.0,105.0 142.5,105.0 142.5,142.5 105.0,142.5 105.0,105.0" height="24.151" />
	<poly id="building-0_2-0_3" type="building" fill="1" layer="-1.0" color="128,128,128" shape="105.0,152.5 142.5,152.5 142.5,190.0 105.0,190.0 105.0,152.5" height="39.974" />
	<poly id="building-0_3-0_0" type="building" fill="1" layer="-1.0" color="128,128,128" shape="152.5,10.0 190.0,10.0 190.0,47.5 152.5,47.5 152.5,10.0" height="28.428" />
	<poly id="building-0_3-0_1" type="building" fill="1" layer="-1.0" color="128,128,128" shape="152.5,57.5 190.0,57.5 190.0,95.0 152.5,95.0 152.5,57.5" height="23.642" />
	<poly id="building-0_3-0_2" type="building" fill="1" layer="-1.0" color="128,128,128" shape="152.5,105.0 190.0,105.0 190.0,142.5 152.5,142.5 152.5,105.0" height="38.067" />
	<poly id="building-0_3-0_3" type="building" fill="1" layer="-1.0" color="128,128,128" shape="152.5,152.5 190.0,152.5 190.0,190.0 152.5,190.0 152.5,152.5" height="40.648" />
	<poly id="building-0_0-1_0" type="building" fill="1" layer="-1.0" color="128,128,128" shape="10.0,210.0 47.5,210.0 47.5,247.5 10.0,247.5 10.0,210.0" height="39.490" />
	<poly id="building-0_0-1_1" type="building" fill="1" layer="-1.0" color="128,128,128" shape="10.0,257.5 47.5,257.5 47.5,295.0 10.0,295.0 10.0,257.5" height="30.885" />
	<poly id="building-0_0-1_2" type="building" fill="1" layer="-1.0" color="128,128,128" shape="10.0,305.0 47.5,305.0 47.5,342.5 10.0,342.5 10.0,305.0" height="23.236" />
	<poly id="building-0_0-1_3" type="building" fill="1" layer="-1.0" color="128,128,128" shape="10.0,352.5 47.5,352.5 47.5,390.0 10.0,390.0 10.0,352.5" height="38.898" />
	<poly id="building-0_1-1_0" type="building" fill="1" layer="-1.0" color="128,128,128" shape="57.5,210.0 95.0,210.0 95.0,247.5 57.5,247.5 57.5,210.0" height="49.762" />
	<poly id="building-0_1-1_1" type="building" fill="1" layer="-1.0" color="128,128,128" shape="57.5,257.5 95.0,257.5 95.0,295.0 57.5,295.0 57.5,257.5" height="37.505" />
	<poly id="building-0_1-1_2" type="building" fill="1" layer="-1.0" color="128,128,128" shape="57.5,305.0 95.0,305.0 95.0,342.5 57.5,342.5 57.5,305.0" height="40.871" />
	<poly id="building-0_1-1_3" type="building" fill="1" layer="-1.0" color="128,128,128" shape="57.5,352.5 95.0,352.5 95.0,390.0 57.5,390.0 57.5,352.5" height="11.344" />
	<poly id="building-0_2-1_0" type="building" fill="1" layer="-1.0" color="128,128,128" shape="105.0,210.0 142.5,210.0 142.5,247.5 105.0,247.5 105.0,210.0" height="20.776" />
	<poly id="building-0_2-1_1" type="building" fill="1" layer="-1.0" color="128,128,128" shape="105.0,257.5 142.5,257.5 142.5,295.0 105.0,295.0 105.0,257.5" height="23.457" />
	<poly id="building-0_2-1_2" type="building" fill="1" layer="-1.0" color="128,128,128" shape="105.0,305.0 142.5,305.0 142.5,342.5 105.0,342.5 105.0,305.0" height="43.772" />
	<poly id="building-0_2-1_3" type="building" fill="1" layer="-1.0" color="128,128,128" shape="105.0,352.5 142.5,352.5 142.5,390.0 105.0,390.0 105.0,352.5" height="49.877" />
	<poly id="building-0_3-1_0" type="building" fill="1" layer="-1.0" color="128,128,128" shape="152.5,210.0 190.0,210.0 190.0,247.5 152.5,247.5 152.5,210.0" height="45.056" />
	<poly id="building-0_3-1_1" type="building" fill="1" layer="-1.0" color="128,128,128" shape="152.5,257.5 190.0,257.5 190.0,295.0 152.5,295.0 152.5,257.5" height="35.006" />
	<poly id="building-0_3-1_2" type="building" fill="1" layer="-1.0" color="128,128,128" shape="152.5,305.0 190.0,305.0 190.0,342.5 152.5,342.5 152.5,305.0" height="20.439" />
	<poly id="building-0_3-1_3" type="building" fill="1" layer="-1.0" color="128,128,128" shape="152.5,352.5 190.0,352.5 190.0,390.0 152.5,390.0 152.5,352.5" height="48.342" />
	<poly id="building-1_0-0_0" type="building" fill="1" layer="-1.0" color="128,128,128" shape="210.0,10.0 247.5,10.0 247.5,47.5 210.0,47.5 210.0,10.0" height="44.859" />
	<poly id="building-1_0-0_1" type="building" fill="1" layer="-1.0" color="128,128,128" shape="210.0,57.5 247.5,57.5 247.5,95.0 210.0,95.0 210.0,57.5" height="36.575" />
	<poly id="building-1_0-0_2" type="building" fill="1" layer="-1.0" color="128,128,128" shape="210.0,105.0 247.5,105.0 247.5,142.5 210.0,142.5 210.0,105.0" height="49.507" />
	<poly id="building-1_0-0_3" type="building" fill="1" layer="-1.0" color="128,128,128" shape="210.0,152.5 247.5,152.5 247.5,190.0 210.0,190.0 210.0,152.5" height="47.960" />
	<poly id="building-1_1-0_0" type="building" fill="1" layer="-1.0" color="128,128,128" shape="257.5,10.0 295.0,10.0 295.0,47.5 257.5,47.5 257.5,10.0" height="27.897" />
	<poly id="building-1_1-0_1" type="building" fill="1" layer="-1.0" color="128,128,128" shape="257.5,57.5 295.0,57.5 295.0,95.0 257.5,95.0 257.5,57.5" height="34.803" />
	<poly id="building-1_1-0_2" type="building" fill="1" layer="-1.0" color="128,128,128" shape="257.5,105.0 295.0,105.0 295.0,142.5 257.5,142.5 257.5,105.0" height="21.859" />
	<poly id="building-1_1-0_3" type="building" fill="1" layer="-1.0" color="128,128,128" shape="257.5,152.5 295.0,152.5 295.0,190.0 257.5,190.0 257.5,152.5" height="13.150" />
	<poly id="building-1_2-0_0" type="building" fill="1" layer="-1.0" color="128,128,128" shape="305.0,10.0 342.5,10.0 342.5,47.5 305.0,47.5 305.0,10.0" height="34.876" />
	<poly id="building-1_2-0_1" type="building" fill="1" layer="-1.0" color="128,128,128" shape="305.0,57.5 342.5,57.5 342.5,95.0 305.0,95.0 305.0,57.5" height="26.263" />
	<poly id="building-1_2-0_2" type="building" fill="1" layer="-1.0" color="128,128,128" shape="305.0,105.0 342.5,105.0 342.5,142.5 305.0,142.5 305.0,105.0" height="12.099" />
	<poly id="building-1_2-0_3" type="building" fill="1" layer="-1.0" color="128,128,128" shape="305.0,152.5 342.5,152.5 342.5,190.0 305.0,190.0 305.0,152.5" height="17.334" />
	<poly id="building-1_3-0_0" type="building" fill="1" layer="-1.0" color="128,128,128" shape="352.5,10.0 390.0,10.0 390.0,47.5 352.5,47.5 352.5,10.0" height="37.324" />
	<poly id="building-1_3-0_1" type="building" fill="1" layer="-1.0" color="128,128,128" shape="352.5,57.5 390.0,57.5 390.0,95.0 352.5,95.0 352.5,57.5" height="14.192" />
	<poly id="building-1_3-0_2" type="building" fill="1" layer="-1.0" color="128,128,128" shape="352.5,105.0 390.0,105.0 390.0,142.5 352.5,142.5 352.5,105.0" height="33.677" />
	<poly id="building-1_3-0_3" type="building" fill="1" layer="-1.0" color="128,128,128" shape="352.5,152.5 390.0,152.5 390.0,190.0 352.5,190.0 352.5,152.5" height="49.388" />
	<poly id="building-1_0-1_0" type="building" fill="1" layer="-1.0" color="128,128,128" shape="210.0,210.0 247.5,210.0 247.5,247.5 210.0,247.5 210.0,210.0" height="34.852" />
	<poly id="building-1_0-1_1" type="building" fill="1" layer="-1.0" color="128,128,128" shape="210.0,257.5 247.5,257.5 247.5,295.0 210.0,295.0 210.0,257.5" height="10.268" />
	<poly id="building-1_0-1_2" type="building" fill="1" layer="-1.0" color="128,128,128" shape="210.0,305.0 247.5,305.0 247.5,342.5 210.0,342.5 210.0,305.0" height="33.854" />
	<poly id="building-1_0-1_3" type="building" fill="1" layer="-1.0" color="128,128,128" shape="210.0,352.5 247.5,352.5 247.5,390.0 210.0,390.0 210.0,352.5" height="22.050" />
	<poly id="building-1_1-1_0" type="building" fill="1" layer="-1.0" color="128,128,128" shape="257.5,210.0 295.0,210.0 295.0,247.5 257.5,247.5 257.5,210.0" height="49.349" />
	<poly id="building-1_1-1_1" type="building" fill="1" layer="-1.0" color="128,128,128" shape="257.5,257.5 295.0,257.5 295.0,295.0 257.5,295.0 257.5,257.5" height="23.886" />
	<poly id="building-1_1-1_2" type="building" fill="1" layer="-1.0" color="128,128,128" shape="257.5,305.0 295.0,305.0 295.0,342.5 257.5,342.5 257.5,305.0" height="15.504" />
	<poly id="building-1_1-1_3" type="building" fill="1" layer="-1.0" color="128,128,128" shape="257.5,352.5 295.0,352.5 295.0,390.0 257.5,390.0 257.5,352.5" height="44.543" />
	<poly id="building-1_2-1_0" type="building" fill="1" layer="-1.0" color="128,128,128" shape="305.0,210.0 342.5,210.0 342.5,247.5 305.0,247.5 305.0,210.0" height="45.706" />
	<poly id="building-1_2-1_1" type="building" fill="1" layer="-1.0" color="128,128,128" shape="305.0,257.5 342.5,257.5 342.5,295.0 305.0,295.0 305.0,257.5" height="11.241" />
	<poly id="building-1_2-1_2" type="building" fill="1" layer="-1.0" color="128,128,128" shape="305.0,305.0 342.5,305.0 342.5,342.5 305.0,342.5 305.0,305.0" height="49.041" />
	<poly id="building-1_2-1_3" type="building" fill="1" layer="-1.0" color="128,128,128" shape="305.0,352.5 342.5,352.5 342.5,390.0 305.0,390.0 305.0,352.5" height="49.980" />
	<poly id="building-1_3-1_0" type="building" fill="1" layer="-1.0" color="128,128,128" shape="352.5,210.0 390.0,210.0 390.0,247.5 352.5,247.5 352.5,210.0" height="24.090" />
	<poly id="building-1_3-1_1" type="building" fill="1" layer="-1.0" color="128,128,128" shape="352.5,257.5 390.0,257.5 390.0,295.0 352.5,295.0 352.5,257.5" height="18.612" />
	<poly id="building-1_3-1_2" type="building" fill="1" layer="-1.0" color="128,128,128" shape="352.5,305.0 390.0,305.0 390.0,342.5 352.5,342.5 352.5,305.0" height="41.593" />
	<poly id="building-1_3-1_3" type="building" fill="1" layer="-1.0" color="128,128,128" shape="352.5,352.5 390.0,352.5 390.0,390.0 352.5,390.0 352.5,352.5" height="12.741" />
</additional>