<?xml version="1.0" encoding="UTF-8"?>

<!-- generated on Mon Feb 13 05:45:29 2023 by Eclipse SUMO duarouter Version 1.8.0
<configuration xmlns:xsi="http://www.w3.org/2001/XMLSchema-instance" xsi:noNamespaceSchemaLocation="http://sumo.dlr.de/xsd/duarouterConfiguration.xsd">

    <input>
        <net-file value="drones-simple.net.xml"/>
        <route-files value="drones-simple.trips.xml"/>
    </input>

    <output>
        <output-file value="drones-simple.rou.xml"/>
        <alternatives-output value="drones-simple.rou.alt.xml"/>
    </output>

</configuration>
-->

<routes xmlns:xsi="http://www.w3.org/2001/XMLSchema-instance" xsi:noNamespaceSchemaLocation="http://sumo.dlr.de/xsd/routes_file.xsd">
    <vehicle id="0" depart="0.00">
        <route edges="B0C0 C0C1 C1B1 B1A1 A1A2 A2B2 B2B1 B1B0 B0A0 A0A1 A1B1 B1A1 A1B1 B1C1 C1C2 C2B2 B2B1 B1B0 B0B1 B1C1 C1C2 C2B2 B2A2 A2A1 A1A0 A0B0 B0C0 C0C1 C1B1 B1B0 B0B1 B1A1 A1A0 A0B0 B0B1 B1B2 B2A2 A2A1 A1A2 A2B2 B2C2 C2C1 C1B1 B1A1 A1A2 A2B2 B2B1 B1A1 A1A0 A0B0 B0A0 A0A1 A1B1 B1C1 C1B1 B1B2 B2A2 A2A1 A1A2 A2B2 B2C2 C2C1 C1C0 C0B0 B0C0 C0C1 C1B1 B1B0 B0A0 A0A1 A1B1 B1B0 B0A0 A0A1 A1A0 A0B0 B0C0 C0C1 C1C2 C2B2 B2A2 A2A1 A1A2 A2B2 B2C2 C2C1 C1C2 C2B2 B2A2 A2A1 A1A2 A2B2 B2C2 C2C1 C1B1 B1B0 B0B1 B1B2 B2A2 A2A1 A1B1 B1B0 B0B1 B1B2 B2B1 B1A1 A1A2 A2B2 B2C2 C2C1 C1B1 B1A1 A1A0 A0B0 B0A0 A0A1 A1B1 B1C1 C1C2 C2B2 B2B1 B1B0 B0A0 A0A1 A1B1 B1B0 B0A0 A0A1 A1A0 A0B0 B0A0 A0A1 A1B1 B1C1 C1C0 C0B0 B0A0 A0A1 A1A2 A2B2 B2B1 B1B0 B0A0 A0A1 A1B1 B1B0 B0A0 A0A1 A1A2 A2B2 B2C2 C2C1 C1C0 C0B0 B0B1 B1B2 B2C2 C2C1 C1C0 C0B0 B0C0 C0C1 C1B1 B1A1 A1A0 A0B0 B0A0 A0A1 A1B1 B1C1 C1C2 C2B2 B2B1 B1B0 B0A0 A0A1 A1B1 B1C1 C1B1 B1A1 A1B1 B1C1 C1C2 C2B2 B2C2 C2C1 C1B1 B1B2 B2B1 B1B0 B0A0 A0A1 A1B1 B1C1 C1C2 C2B2 B2A2 A2A1 A1A0"/>
    </vehicle>
    <vehicle id="1" depart="30.00">
        <route edges="B1C1 C1C2 C2B2 B2A2 A2A1 A1A0 A0B0 B0C0 C0C1 C1B1 B1A1 A1A2 A2B2 B2B1 B1B0 B0C0 C0C1 C1C2 C2B2 B2B1 B1B0 B0A0 A0A1 A1B1 B1C1 C1C0 C0B0 B0B1 B1A1 A1B1 B1C1 C1C0 C0B0 B0B1 B1C1 C1C0 C0B0 B0B1 B1B2 B2B1 B1B2 B2B1 B1B0 B0A0 A0A1 A1B1 B1B0 B0B1 B1C1 C1B1 B1B0 B0B1 B1A1 A1A2 A2B2 B2C2 C2C1 C1C0 C0B0 B0A0 A0A1 A1A2 A2B2 B2C2 C2C1 C1B1 B1A1 A1A0 A0B0 B0B1 B1B2 B2B1 B1B0 B0B1 B1C1 C1C0 C0B0 B0A0 A0A1 A1B1 B1B0 B0C0 C0C1 C1C0 C0B0 B0B1 B1B2 B2A2 A2A1 A1B1 B1B2 B2B1 B1B0 B0A0 A0A1 A1B1 B1C1 C1C0 C0B0 B0B1 B1B0 B0C0 C0C1 C1C2 C2B2 B2A2 A2A1 A1B1 B1B2 B2A2 A2A1 A1A2 A2B2 B2C2 C2C1 C1B1 B1A1 A1A2 A2B2 B2B1 B1A1 A1A2 A2B2 B2B1 B1B0 B0A0 A0A1 A1A2 A2B2 B2B1 B1A1 A1B1 B1C1 C1B1 B1C1 C1C0 C0B0 B0C0 C0C1 C1B1 B1A1 A1B1 B1A1 A1B1 B1C1 C1C2 C2B2 B2B1 B1B0 B0C0 C0C1 C1B1 B1A1 A1B1 B1C1 C1B1 B1C1 C1C0 C0B0 B0B1 B1B2 B2C2 C2C1 C1B1 B1B0 B0A0 A0A1 A1A0 A0B0 B0C0 C0C1 C1C2 C2B2 B2C2 C2C1 C1C0 C0B0 B0B1 B1B0 B0C0 C0C1 C1B1"/>
    </vehicle>
</routes>
