<?xml version='1.0' encoding='us-ascii'?>
<additional xmlns:xsi="http://www.w3.org/2001/XMLSchema-instance" xsi:noNamespaceSchemaLocation="http://sumo.dlr.de/xsd/additional_file.xsd">
	<poly id="building-0_0-0_0" type="building" fill="1" layer="-1.0" color="128,128,128" shape="15.0,15.0 135.0,15.0 135.0,135.0 15.0,135.0 15.0,15.0" height="43.799" />
	<poly id="building-0_0-1_0" type="building" fill="1" layer="-1.0" color="128,128,128" shape="15.0,165.0 135.0,165.0 135.0,285.0 15.0,285.0 15.0,165.0" height="12.244" />
	<poly id="building-0_0-2_0" type="building" fill="1" layer="-1.0" color="128,128,128" shape="15.0,315.0 135.0,315.0 135.0,435.0 15.0,435.0 15.0,315.0" height="32.655" />
	<poly id="building-0_0-3_0" type="building" fill="1" layer="-1.0" color="128,128,128" shape="15.0,465.0 135.0,465.0 135.0,585.0 15.0,585.0 15.0,465.0" height="20.882" />
	<poly id="building-1_0-0_0" type="building" fill="1" layer="-1.0" color="128,128,128" shape="165.0,15.0 285.0,15.0 285.0,135.0 165.0,135.0 165.0,15.0" height="10.882" />
	<poly id="building-1_0-1_0" type="building" fill="1" layer="-1.0" color="128,128,128" shape="165.0,165.0 285.0,165.0 285.0,285.0 165.0,285.0 165.0,165.0" height="23.199" />
	<poly id="building-1_0-2_0" type="building" fill="1" layer="-1.0" color="128,128,128" shape="165.0,315.0 285.0,315.0 285.0,435.0 165.0,435.0 165.0,315.0" height="23.269" />
	<poly id="building-1_0-3_0" type="building" fill="1" layer="-1.0" color="128,128,128" shape="165.0,465.0 285.0,465.0 285.0,585.0 165.0,585.0 165.0,465.0" height="36.077" />
	<poly id="building-2_0-0_0" type="building" fill="1" layer="-1.0" color="128,128,128" shape="315.0,15.0 435.0,15.0 435.0,135.0 315.0,135.0 315.0,15.0" height="32.389" />
	<poly id="building-2_0-1_0" type="building" fill="1" layer="-1.0" color="128,128,128" shape="315.0,165.0 435.0,165.0 435.0,285.0 315.0,285.0 315.0,165.0" height="41.020" />
	<poly id="building-2_0-2_0" type="building" fill="1" layer="-1.0" color="128,128,128" shape="315.0,315.0 435.0,315.0 435.0,435.0 315.0,435.0 315.0,315.0" height="29.744" />
	<poly id="building-2_0-3_0" type="building" fill="1" layer="-1.0" color="128,128,128" shape="315.0,465.0 435.0,465.0 435.0,585.0 315.0,585.0 315.0,465.0" height="35.325" />
	<poly id="building-3_0-0_0" type="building" fill="1" layer="-1.0" color="128,128,128" shape="465.0,15.0 585.0,15.0 585.0,135.0 465.0,135.0 465.0,15.0" height="32.660" />
	<poly id="building-3_0-1_0" type="building" fill="1" layer="-1.0" color="128,128,128" shape="465.0,165.0 585.0,165.0 585.0,285.0 465.0,285.0 465.0,165.0" height="23.813" />
	<poly id="building-3_0-2_0" type="building" fill="1" layer="-1.0" color="128,128,128" shape="465.0,315.0 585.0,315.0 585.0,435.0 465.0,435.0 465.0,315.0" height="41.510" />
	<poly id="building-3_0-3_0" type="building" fill="1" layer="-1.0" color="128,128,128" shape="465.0,465.0 585.0,465.0 585.0,585.0 465.0,585.0 465.0,465.0" height="34.163" />
</additional>