<?xml version='1.0' encoding='us-ascii'?>
<additional xmlns:xsi="http://www.w3.org/2001/XMLSchema-instance" xsi:noNamespaceSchemaLocation="http://sumo.dlr.de/xsd/additional_file.xsd">
	<poly id="building-0_0-0_0" type="building" fill="1" layer="-1.0" color="128,128,128" shape="10.0,10.0 57.5,10.0 57.5,57.5 10.0,57.5 10.0,10.0" height="31.802" />
	<poly id="building-0_0-0_1" type="building" fill="1" layer="-1.0" color="128,128,128" shape="10.0,67.5 57.5,67.5 57.5,115.0 10.0,115.0 10.0,67.5" height="31.935" />
	<poly id="building-0_0-0_2" type="building" fill="1" layer="-1.0" color="128,128,128" shape="10.0,125.0 57.5,125.0 57.5,172.5 10.0,172.5 10.0,125.0" height="43.599" />
	<poly id="building-0_0-0_3" type="building" fill="1" layer="-1.0" color="128,128,128" shape="10.0,182.5 57.5,182.5 57.5,230.0 10.0,230.0 10.0,182.5" height="24.133" />
	<poly id="building-0_1-0_0" type="building" fill="1" layer="-1.0" color="128,128,128" shape="67.5,10.0 115.0,10.0 115.0,57.5 67.5,57.5 67.5,10.0" height="15.287" />
	<poly id="building-0_1-0_1" type="building" fill="1" layer="-1.0" color="128,128,128" shape="67.5,67.5 115.0,67.5 115.0,115.0 67.5,115.0 67.5,67.5" height="25.316" />
	<poly id="building-0_1-0_2" type="building" fill="1" layer="-1.0" color="128,128,128" shape="67.5,125.0 115.0,125.0 115.0,172.5 67.5,172.5 67.5,125.0" height="44.194" />
	<poly id="building-0_1-0_3" type="building" fill="1" layer="-1.0" color="128,128,128" shape="67.5,182.5 115.0,182.5 115.0,230.0 67.5,230.0 67.5,182.5" height="19.034" />
	<poly id="building-0_2-0_0" type="building" fill="1" layer="-1.0" color="128,128,128" shape="125.0,10.0 172.5,10.0 172.5,57.5 125.0,57.5 125.0,10.0" height="43.792" />
	<poly id="building-0_2-0_1" type="building" fill="1" layer="-1.0" color="128,128,128" shape="125.0,67.5 172.5,67.5 172.5,115.0 125.0,115.0 125.0,67.5" height="43.185" />
	<poly id="building-0_2-0_2" type="building" fill="1" layer="-1.0" color="128,128,128" shape="125.0,125.0 172.5,125.0 172.5,172.5 125.0,172.5 125.0,125.0" height="18.055" />
	<poly id="building-0_2-0_3" type="building" fill="1" layer="-1.0" color="128,128,128" shape="125.0,182.5 172.5,182.5 172.5,230.0 125.0,230.0 125.0,182.5" height="14.284" />
	<poly id="building-0_3-0_0" type="building" fill="1" layer="-1.0" color="128,128,128" shape="182.5,10.0 230.0,10.0 230.0,57.5 182.5,57.5 182.5,10.0" height="21.541" />
	<poly id="building-0_3-0_1" type="building" fill="1" layer="-1.0" color="128,128,128" shape="182.5,67.5 230.0,67.5 230.0,115.0 182.5,115.0 182.5,67.5" height="16.064" />
	<poly id="building-0_3-0_2" type="building" fill="1" layer="-1.0" color="128,128,128" shape="182.5,125.0 230.0,125.0 230.0,172.5 182.5,172.5 182.5,125.0" height="42.193" />
	<poly id="building-0_3-0_3" type="building" fill="1" layer="-1.0" color="128,128,128" shape="182.5,182.5 230.0,182.5 230.0,230.0 182.5,230.0 182.5,182.5" height="38.451" />
	<poly id="building-0_0-1_0" type="building" fill="1" layer="-1.0" color="128,128,128" shape="10.0,250.0 57.5,250.0 57.5,297.5 10.0,297.5 10.0,250.0" height="21.848" />
	<poly id="building-0_0-1_1" type="building" fill="1" layer="-1.0" color="128,128,128" shape="10.0,307.5 57.5,307.5 57.5,355.0 10.0,355.0 10.0,307.5" height="38.598" />
	<poly id="building-0_0-1_2" type="building" fill="1" layer="-1.0" color="128,128,128" shape="10.0,365.0 57.5,365.0 57.5,412.5 10.0,412.5 10.0,365.0" height="21.154" />
	<poly id="building-0_0-1_3" type="building" fill="1" layer="-1.0" color="128,128,128" shape="10.0,422.5 57.5,422.5 57.5,470.0 10.0,470.0 10.0,422.5" height="35.363" />
	<poly id="building-0_1-1_0" type="building" fill="1" layer="-1.0" color="128,128,128" shape="67.5,250.0 115.0,250.0 115.0,297.5 67.5,297.5 67.5,250.0" height="10.781" />
	<poly id="building-0_1-1_1" type="building" fill="1" layer="-1.0" color="128,128,128" shape="67.5,307.5 115.0,307.5 115.0,355.0 67.5,355.0 67.5,307.5" height="22.134" />
	<poly id="building-0_1-1_2" type="building" fill="1" layer="-1.0" color="128,128,128" shape="67.5,365.0 115.0,365.0 115.0,412.5 67.5,412.5 67.5,365.0" height="32.582" />
	<poly id="building-0_1-1_3" type="building" fill="1" layer="-1.0" color="128,128,128" shape="67.5,422.5 115.0,422.5 115.0,470.0 67.5,470.0 67.5,422.5" height="38.261" />
	<poly id="building-0_2-1_0" type="building" fill="1" layer="-1.0" color="128,128,128" shape="125.0,250.0 172.5,250.0 172.5,297.5 125.0,297.5 125.0,250.0" height="45.133" />
	<poly id="building-0_2-1_1" type="building" fill="1" layer="-1.0" color="128,128,128" shape="125.0,307.5 172.5,307.5 172.5,355.0 125.0,355.0 125.0,307.5" height="28.525" />
	<poly id="building-0_2-1_2" type="building" fill="1" layer="-1.0" color="128,128,128" shape="125.0,365.0 172.5,365.0 172.5,412.5 125.0,412.5 125.0,365.0" height="13.692" />
	<poly id="building-0_2-1_3" type="building" fill="1" layer="-1.0" color="128,128,128" shape="125.0,422.5 172.5,422.5 172.5,470.0 125.0,470.0 125.0,422.5" height="48.847" />
	<poly id="building-0_3-1_0" type="building" fill="1" layer="-1.0" color="128,128,128" shape="182.5,250.0 230.0,250.0 230.0,297.5 182.5,297.5 182.5,250.0" height="10.359" />
	<poly id="building-0_3-1_1" type="building" fill="1" layer="-1.0" color="128,128,128" shape="182.5,307.5 230.0,307.5 230.0,355.0 182.5,355.0 182.5,307.5" height="16.054" />
	<poly id="building-0_3-1_2" type="building" fill="1" layer="-1.0" color="128,128,128" shape="182.5,365.0 230.0,365.0 230.0,412.5 182.5,412.5 182.5,365.0" height="46.848" />
	<poly id="building-0_3-1_3" type="building" fill="1" layer="-1.0" color="128,128,128" shape="182.5,422.5 230.0,422.5 230.0,470.0 182.5,470.0 182.5,422.5" height="43.081" />
	<poly id="building-1_0-0_0" type="building" fill="1" layer="-1.0" color="128,128,128" shape="250.0,10.0 297.5,10.0 297.5,57.5 250.0,57.5 250.0,10.0" height="40.568" />
	<poly id="building-1_0-0_1" type="building" fill="1" layer="-1.0" color="128,128,128" shape="250.0,67.5 297.5,67.5 297.5,115.0 250.0,115.0 250.0,67.5" height="27.731" />
	<poly id="building-1_0-0_2" type="building" fill="1" layer="-1.0" color="128,128,128" shape="250.0,125.0 297.5,125.0 297.5,172.5 250.0,172.5 250.0,125.0" height="43.591" />
	<poly id="building-1_0-0_3" type="building" fill="1" layer="-1.0" color="128,128,128" shape="250.0,182.5 297.5,182.5 297.5,230.0 250.0,230.0 250.0,182.5" height="40.385" />
	<poly id="building-1_1-0_0" type="building" fill="1" layer="-1.0" color="128,128,128" shape="307.5,10.0 355.0,10.0 355.0,57.5 307.5,57.5 307.5,10.0" height="15.302" />
	<poly id="building-1_1-0_1" type="building" fill="1" layer="-1.0" color="128,128,128" shape="307.5,67.5 355.0,67.5 355.0,115.0 307.5,115.0 307.5,67.5" height="18.334" />
	<poly id="building-1_1-0_2" type="building" fill="1" layer="-1.0" color="128,128,128" shape="307.5,125.0 355.0,125.0 355.0,172.5 307.5,172.5 307.5,125.0" height="10.193" />
	<poly id="building-1_1-0_3" type="building" fill="1" layer="-1.0" color="128,128,128" shape="307.5,182.5 355.0,182.5 355.0,230.0 307.5,230.0 307.5,182.5" height="15.822" />
	<poly id="building-1_2-0_0" type="building" fill="1" layer="-1.0" color="128,128,128" shape="365.0,10.0 412.5,10.0 412.5,57.5 365.0,57.5 365.0,10.0" height="37.018" />
	<poly id="building-1_2-0_1" type="building" fill="1" layer="-1.0" color="128,128,128" shape="365.0,67.5 412.5,67.5 412.5,115.0 365.0,115.0 365.0,67.5" height="28.944" />
	<poly id="building-1_2-0_2" type="building" fill="1" layer="-1.0" color="128,128,128" shape="365.0,125.0 412.5,125.0 412.5,172.5 365.0,172.5 365.0,125.0" height="19.066" />
	<poly id="building-1_2-0_3" type="building" fill="1" layer="-1.0" color="128,128,128" shape="365.0,182.5 412.5,182.5 412.5,230.0 365.0,230.0 365.0,182.5" height="33.559" />
	<poly id="building-1_3-0_0" type="building" fill="1" layer="-1.0" color="128,128,128" shape="422.5,10.0 470.0,10.0 470.0,57.5 422.5,57.5 422.5,10.0" height="31.144" />
	<poly id="building-1_3-0_1" type="building" fill="1" layer="-1.0" color="128,128,128" shape="422.5,67.5 470.0,67.5 470.0,115.0 422.5,115.0 422.5,67.5" height="23.269" />
	<poly id="building-1_3-0_2" type="building" fill="1" layer="-1.0" color="128,128,128" shape="422.5,125.0 470.0,125.0 470.0,172.5 422.5,172.5 422.5,125.0" height="40.671" />
	<poly id="building-1_3-0_3" type="building" fill="1" layer="-1.0" color="128,128,128" shape="422.5,182.5 470.0,182.5 470.0,230.0 422.5,230.0 422.5,182.5" height="31.662" />
	<poly id="building-1_0-1_0" type="building" fill="1" layer="-1.0" color="128,128,128" shape="250.0,250.0 297.5,250.0 297.5,297.5 250.0,297.5 250.0,250.0" height="39.495" />
	<poly id="building-1_0-1_1" type="building" fill="1" layer="-1.0" color="128,128,128" shape="250.0,307.5 297.5,307.5 297.5,355.0 250.0,355.0 250.0,307.5" height="42.867" />
	<poly id="building-1_0-1_2" type="building" fill="1" layer="-1.0" color="128,128,128" shape="250.0,365.0 297.5,365.0 297.5,412.5 250.0,412.5 250.0,365.0" height="30.809" />
	<poly id="building-1_0-1_3" type="building" fill="1" layer="-1.0" color="128,128,128" shape="250.0,422.5 297.5,422.5 297.5,470.0 250.0,470.0 250.0,422.5" height="32.273" />
	<poly id="building-1_1-1_0" type="building" fill="1" layer="-1.0" color="128,128,128" shape="307.5,250.0 355.0,250.0 355.0,297.5 307.5,297.5 307.5,250.0" height="14.776" />
	<poly id="building-1_1-1_1" type="building" fill="1" layer="-1.0" color="128,128,128" shape="307.5,307.5 355.0,307.5 355.0,355.0 307.5,355.0 307.5,307.5" height="21.980" />
	<poly id="building-1_1-1_2" type="building" fill="1" layer="-1.0" color="128,128,128" shape="307.5,365.0 355.0,365.0 355.0,412.5 307.5,412.5 307.5,365.0" height="23.390" />
	<poly id="building-1_1-1_3" type="building" fill="1" layer="-1.0" color="128,128,128" shape="307.5,422.5 355.0,422.5 355.0,470.0 307.5,470.0 307.5,422.5" height="34.165" />
	<poly id="building-1_2-1_0" type="building" fill="1" layer="-1.0" color="128,128,128" shape="365.0,250.0 412.5,250.0 412.5,297.5 365.0,297.5 365.0,250.0" height="11.254" />
	<poly id="building-1_2-1_1" type="building" fill="1" layer="-1.0" color="128,128,128" shape="365.0,307.5 412.5,307.5 412.5,355.0 365.0,355.0 365.0,307.5" height="33.604" />
	<poly id="building-1_2-1_2" type="building" fill="1" layer="-1.0" color="128,128,128" shape="365.0,365.0 412.5,365.0 412.5,412.5 365.0,412.5 365.0,365.0" height="27.756" />
	<poly id="building-1_2-1_3" type="building" fill="1" layer="-1.0" color="128,128,128" shape="365.0,422.5 412.5,422.5 412.5,470.0 365.0,470.0 365.0,422.5" height="13.628" />
	<poly id="building-1_3-1_0" type="building" fill="1" layer="-1.0" color="128,128,128" shape="422.5,250.0 470.0,250.0 470.0,297.5 422.5,297.5 422.5,250.0" height="48.714" />
	<poly id="building-1_3-1_1" type="building" fill="1" layer="-1.0" color="128,128,128" shape="422.5,307.5 470.0,307.5 470.0,355.0 422.5,355.0 422.5,307.5" height="28.952" />
	<poly id="building-1_3-1_2" type="building" fill="1" layer="-1.0" color="128,128,128" shape="422.5,365.0 470.0,365.0 470.0,412.5 422.5,412.5 422.5,365.0" height="33.689" />
	<poly id="building-1_3-1_3" type="building" fill="1" layer="-1.0" color="128,128,128" shape="422.5,422.5 470.0,422.5 470.0,470.0 422.5,470.0 422.5,422.5" height="10.298" />
</additional>