<?xml version='1.0' encoding='us-ascii'?>
<additional xmlns:xsi="http://www.w3.org/2001/XMLSchema-instance" xsi:noNamespaceSchemaLocation="http://sumo.dlr.de/xsd/additional_file.xsd">
	<poly id="building-simple-0_0" type="building" fill="1" layer="-1.0" color="128,128,128" shape="25.0,25.0 475.0,25.0 475.0,475.0 25.0,475.0 25.0,25.0" />
	<poly id="building-simple-0_1" type="building" fill="1" layer="-1.0" color="128,128,128" shape="25.0,525.0 475.0,525.0 475.0,975.0 25.0,975.0 25.0,525.0" />
	<poly id="building-simple-0_2" type="building" fill="1" layer="-1.0" color="128,128,128" shape="25.0,1025.0 475.0,1025.0 475.0,1475.0 25.0,1475.0 25.0,1025.0" />
	<poly id="building-simple-0_3" type="building" fill="1" layer="-1.0" color="128,128,128" shape="25.0,1525.0 475.0,1525.0 475.0,1975.0 25.0,1975.0 25.0,1525.0" />
	<poly id="building-simple-0_4" type="building" fill="1" layer="-1.0" color="128,128,128" shape="25.0,2025.0 475.0,2025.0 475.0,2475.0 25.0,2475.0 25.0,2025.0" />
	<poly id="building-simple-0_5" type="building" fill="1" layer="-1.0" color="128,128,128" shape="25.0,2525.0 475.0,2525.0 475.0,2975.0 25.0,2975.0 25.0,2525.0" />
	<poly id="building-simple-1_0" type="building" fill="1" layer="-1.0" color="128,128,128" shape="525.0,25.0 975.0,25.0 975.0,475.0 525.0,475.0 525.0,25.0" />
	<poly id="building-simple-1_1" type="building" fill="1" layer="-1.0" color="128,128,128" shape="525.0,525.0 975.0,525.0 975.0,975.0 525.0,975.0 525.0,525.0" />
	<poly id="building-simple-1_2" type="building" fill="1" layer="-1.0" color="128,128,128" shape="525.0,1025.0 975.0,1025.0 975.0,1475.0 525.0,1475.0 525.0,1025.0" />
	<poly id="building-simple-1_3" type="building" fill="1" layer="-1.0" color="128,128,128" shape="525.0,1525.0 975.0,1525.0 975.0,1975.0 525.0,1975.0 525.0,1525.0" />
	<poly id="building-simple-1_4" type="building" fill="1" layer="-1.0" color="128,128,128" shape="525.0,2025.0 975.0,2025.0 975.0,2475.0 525.0,2475.0 525.0,2025.0" />
	<poly id="building-simple-1_5" type="building" fill="1" layer="-1.0" color="128,128,128" shape="525.0,2525.0 975.0,2525.0 975.0,2975.0 525.0,2975.0 525.0,2525.0" />
	<poly id="building-simple-2_0" type="building" fill="1" layer="-1.0" color="128,128,128" shape="1025.0,25.0 1475.0,25.0 1475.0,475.0 1025.0,475.0 1025.0,25.0" />
	<poly id="building-simple-2_1" type="building" fill="1" layer="-1.0" color="128,128,128" shape="1025.0,525.0 1475.0,525.0 1475.0,975.0 1025.0,975.0 1025.0,525.0" />
	<poly id="building-simple-2_2" type="building" fill="1" layer="-1.0" color="128,128,128" shape="1025.0,1025.0 1475.0,1025.0 1475.0,1475.0 1025.0,1475.0 1025.0,1025.0" />
	<poly id="building-simple-2_3" type="building" fill="1" layer="-1.0" color="128,128,128" shape="1025.0,1525.0 1475.0,1525.0 1475.0,1975.0 1025.0,1975.0 1025.0,1525.0" />
	<poly id="building-simple-2_4" type="building" fill="1" layer="-1.0" color="128,128,128" shape="1025.0,2025.0 1475.0,2025.0 1475.0,2475.0 1025.0,2475.0 1025.0,2025.0" />
	<poly id="building-simple-2_5" type="building" fill="1" layer="-1.0" color="128,128,128" shape="1025.0,2525.0 1475.0,2525.0 1475.0,2975.0 1025.0,2975.0 1025.0,2525.0" />
	<poly id="building-simple-3_0" type="building" fill="1" layer="-1.0" color="128,128,128" shape="1525.0,25.0 1975.0,25.0 1975.0,475.0 1525.0,475.0 1525.0,25.0" />
	<poly id="building-simple-3_1" type="building" fill="1" layer="-1.0" color="128,128,128" shape="1525.0,525.0 1975.0,525.0 1975.0,975.0 1525.0,975.0 1525.0,525.0" />
	<poly id="building-simple-3_2" type="building" fill="1" layer="-1.0" color="128,128,128" shape="1525.0,1025.0 1975.0,1025.0 1975.0,1475.0 1525.0,1475.0 1525.0,1025.0" />
	<poly id="building-simple-3_3" type="building" fill="1" layer="-1.0" color="128,128,128" shape="1525.0,1525.0 1975.0,1525.0 1975.0,1975.0 1525.0,1975.0 1525.0,1525.0" />
	<poly id="building-simple-3_4" type="building" fill="1" layer="-1.0" color="128,128,128" shape="1525.0,2025.0 1975.0,2025.0 1975.0,2475.0 1525.0,2475.0 1525.0,2025.0" />
	<poly id="building-simple-3_5" type="building" fill="1" layer="-1.0" color="128,128,128" shape="1525.0,2525.0 1975.0,2525.0 1975.0,2975.0 1525.0,2975.0 1525.0,2525.0" />
	<poly id="building-simple-4_0" type="building" fill="1" layer="-1.0" color="128,128,128" shape="2025.0,25.0 2475.0,25.0 2475.0,475.0 2025.0,475.0 2025.0,25.0" />
	<poly id="building-simple-4_1" type="building" fill="1" layer="-1.0" color="128,128,128" shape="2025.0,525.0 2475.0,525.0 2475.0,975.0 2025.0,975.0 2025.0,525.0" />
	<poly id="building-simple-4_2" type="building" fill="1" layer="-1.0" color="128,128,128" shape="2025.0,1025.0 2475.0,1025.0 2475.0,1475.0 2025.0,1475.0 2025.0,1025.0" />
	<poly id="building-simple-4_3" type="building" fill="1" layer="-1.0" color="128,128,128" shape="2025.0,1525.0 2475.0,1525.0 2475.0,1975.0 2025.0,1975.0 2025.0,1525.0" />
	<poly id="building-simple-4_4" type="building" fill="1" layer="-1.0" color="128,128,128" shape="2025.0,2025.0 2475.0,2025.0 2475.0,2475.0 2025.0,2475.0 2025.0,2025.0" />
	<poly id="building-simple-4_5" type="building" fill="1" layer="-1.0" color="128,128,128" shape="2025.0,2525.0 2475.0,2525.0 2475.0,2975.0 2025.0,2975.0 2025.0,2525.0" />
	<poly id="building-simple-5_0" type="building" fill="1" layer="-1.0" color="128,128,128" shape="2525.0,25.0 2975.0,25.0 2975.0,475.0 2525.0,475.0 2525.0,25.0" />
	<poly id="building-simple-5_1" type="building" fill="1" layer="-1.0" color="128,128,128" shape="2525.0,525.0 2975.0,525.0 2975.0,975.0 2525.0,975.0 2525.0,525.0" />
	<poly id="building-simple-5_2" type="building" fill="1" layer="-1.0" color="128,128,128" shape="2525.0,1025.0 2975.0,1025.0 2975.0,1475.0 2525.0,1475.0 2525.0,1025.0" />
	<poly id="building-simple-5_3" type="building" fill="1" layer="-1.0" color="128,128,128" shape="2525.0,1525.0 2975.0,1525.0 2975.0,1975.0 2525.0,1975.0 2525.0,1525.0" />
	<poly id="building-simple-5_4" type="building" fill="1" layer="-1.0" color="128,128,128" shape="2525.0,2025.0 2975.0,2025.0 2975.0,2475.0 2525.0,2475.0 2525.0,2025.0" />
	<poly id="building-simple-5_5" type="building" fill="1" layer="-1.0" color="128,128,128" shape="2525.0,2525.0 2975.0,2525.0 2975.0,2975.0 2525.0,2975.0 2525.0,2525.0" />
</additional>