<?xml version="1.0" encoding="UTF-8"?>
<!-- generated on 2023-04-15 20:18:31.498414 by $Id$ v1_8_0+0044-4820708f3d
  options: -n drones.net.xml -b 0 -e 300 -p 1 <doubleminus>random -i 64 -o drones.trips.xml
-->
<routes>
    <trip id="0" depart="0.00" from="E4E3" to="H7G7" via="E1E2 K3J3 M12N12 B5B6 J11K11 D9E9 F11G11 N10N9 I4J4 G12H12 I10J10 F5F4 N7N8 C1C2 F0E0 E8E9 H11I11 E12E13 C14D14 M6N6 B1C1 H4H3 A2A3 E2E1 F6G6 M12M11 H11H10 B5C5 M1M0 B11C11 J12J13 F13F14 D12E12 F9G9 L6M6 K9K8 H9H8 J6J7 C2C3 F6F5 L13L14 K4K3 A2A1 G7G8 M14N14 O8N8 F11E11 L12M12 C2C1 I6I5 L7L8 B2A2 I14H14 J0J1 J2J3 I12I13 D0E0 N6N5 G7F7 N9O9 B8C8 H3H4 N3N4 M0N0" />
    <trip id="1" depart="1.00" from="K10J10" to="F8F9" via="O4O5 D4D5 L1K1 A14A13 K6K7 L2K2 N6N5 D5E5 E6F6 F13F12 K10J10 F12F13 K2L2 C11C10 L2K2 I4J4 L10L9 G11G12 F5E5 E1D1 F12F13 J8J9 I2I1 O12O11 F11F12 B9C9 O4N4 B12B13 I9J9 L10M10 F13F12 G14H14 A14A13 J5J4 H11H12 L12L13 H4H5 C5D5 L8L9 B3C3 M11L11 B8B9 D10C10 D13E13 I9I10 F14E14 L12L13 L1L0 M13L13 D4C4 K1K2 B7B6 H9I9 C1C2 M13N13 F7F8 C9B9 F5F6 D9E9 J1J2 G5G4 L11L12 K3L3 B13A13" />
    <trip id="2" depart="2.00" from="I3I4" to="J3J2" via="K5J5 D14E14 I14H14 K5K6 M4M5 F7G7 C2D2 J3K3 O9O8 G10F10 C2B2 J6J5 O12O13 N6M6 E8F8 H0I0 J4J3 E1E2 F7F8 G6F6 D13D14 M9M8 H0G0 B10A10 J1J2 D8D9 M12M11 K5J5 I2I1 E8F8 K6J6 O6O5 N5N6 J9I9 D5E5 D7D6 J2K2 B4B5 J4K4 C3C4 N12N13 C7B7 M2M1 D7D8 H8H7 G5H5 N12M12 D12E12 K11K12 E11E10 C6C5 B10A10 M0L0 H6H5 H1H0 B3B4 H9H10 G8G9 M6N6 C10D10 C10B10 M3L3 M2M3 J2I2" />
    <trip id="3" depart="3.00" from="E12F12" to="F8E8" via="F7F6 B12B13 O1O2 F3F2 N7N6 G4G3 M12M11 K4L4 K3K2 E7E6 H3I3 F2F3 I8H8 H10I10 J12I12 D11E11 J3I3 C8D8 D4D3 H11G11 C5B5 C3C4 B9B10 C6B6 M6M5 E5E6 L14K14 D14C14 K4J4 N5N6 L11M11 N1N0 J14I14 J6J5 N6N7 C6D6 K1K0 O14O13 C12C11 J0I0 A2B2 E0F0 G5G4 L5K5 C1C2 N7M7 F9F8 G13G12 A9B9 D0C0 L6L5 F0F1 D6D7 G9G10 I6H6 C1C2 H7G7 B6B7 F4F5 H11H12 M7M8 I0H0 B12B11 F11G11" />
    <trip id="4" depart="4.00" from="E2E1" to="E7E6" via="L1M1 N1N2 O4O3 G5G6 N4N3 N14N13 L0K0 D7D6 F11G11 I8J8 K13K12 E9D9 O8N8 F2E2 L6L7 G14G13 K8J8 I14J14 L7L8 I14H14 I0H0 B6B7 A7A6 I5I6 E10D10 C12C13 M8M7 I7I8 G9H9 M2L2 I5H5 N1N0 F6G6 E11F11 M10N10 C11C12 A3A4 O2O3 J0K0 L8K8 D0C0 C9C8 D8D9 C2C1 D12D11 A1A0 G7G8 J10J11 B12B11 N3O3 N3O3 J12J13 J12I12 N0N1 J11I11 A4B4 C7C6 D1D0 B9A9 D0D1 I9J9 A3A2 M6M5 F10F9" />
    <trip id="5" depart="5.00" from="G6G5" to="B12A12" via="K2K1 F14F13 K8L8 D5C5 N5N4 G7G8 H10H9 I10J10 F11E11 E6F6 A9A8 K14J14 B14B13 M11M12 B12B13 M8M7 J11I11 N1N2 L1K1 G5F5 E13D13 M5M4 M10M11 E10E9 K5J5 N2M2 D3D4 A11A10 G3H3 L6L5 D10C10 C7C8 F8E8 H3H4 F12E12 I2H2 E1E0 L0L1 K6J6 F13F12 B10B9 O9N9 C13D13 I8I7 F7E7 O0O1 N4M4 F8G8 A3A4 C10D10 M5M4 K11L11 G12G11 K5K6 K11J11 C3B3 M10N10 C6D6 N6M6 D8D7 F12F13 A10B10 K11K10 E2D2" />
    <trip id="6" depart="6.00" from="J5I5" to="B10B11" via="I9I8 D5C5 B12C12 O4O5 H2G2 J7I7 K6L6 L13L14 L9M9 F7F6 I8J8 D3E3 M6M7 C2D2 B7B8 N13M13 K1K0 K3K4 C2B2 H8H9 K7L7 D3D4 J12J13 E9E8 M13N13 M11M10 B11B10 A12B12 K0J0 L2L3 G13G12 N2O2 F4F3 J9J10 B2B1 E2E3 L7K7 I12I11 N10O10 N4M4 B12A12 H9H8 M11M12 E3F3 L14K14 L4L5 I7I8 C10B10 L7L8 H4I4 M2M3 J11J10 J9K9 A14B14 K13L13 E13E14 C4C5 D7E7 C9D9 L11L12 N3O3 H13I13 C9C10 K12K11" />
    <trip id="7" depart="7.00" from="G13G14" to="H2G2" via="I1J1 K10K9 L12L13 L14K14 K1L1 M14L14 F3F2 D13C13 G2G1 J8K8 L13L14 B8C8 J9J8 K10L10 K2K3 H2I2 A11A12 K14L14 D3C3 O6N6 E12E11 C2B2 H11H10 N9N8 K5L5 N14O14 G11H11 D1D0 A12A11 F1F2 K4K3 B8B9 E10E9 H7H8 D8C8 N8N7 A9A8 O3N3 M2L2 G13G12 H10G10 E13F13 N5M5 F14F13 A8A9 F0F1 D3D4 B13A13 O6O5 C12B12 G0G1 N0M0 D1E1 H7H6 D10D9 E7F7 H0G0 J13J14 E2D2 B10B11 B5A5 J3K3 H14H13 N4O4" />
    <trip id="8" depart="8.00" from="O2N2" to="M6M5" via="L1L0 L12L13 M12L12 J5I5 N14N13 K10K11 D3E3 G3F3 B12A12 L10K10 A4B4 B7A7 E4E3 K3K4 N6O6 J10J9 I14H14 D3E3 G4G3 D4D5 E1E0 I14H14 M3M4 C8D8 D4D3 I11I12 L8M8 H2H1 E1E0 H11H10 H9I9 M1M2 J12J13 K10K9 G5G6 I9H9 L6L5 G11G12 O5N5 J5J6 K7J7 C7B7 M12M13 E4D4 H0G0 M4N4 M8M7 I9J9 L3M3 L2L1 C11C12 D2D1 N14M14 C5C4 C7D7 H2H1 K4K5 M4M3 M0L0 B13C13 N2N1 D12D11 F5G5 I5J5" />
    <trip id="9" depart="9.00" from="A5A6" to="A12B12" via="F7F6 B3C3 K6K5 O4N4 L14M14 E3E2 J4I4 K5J5 A14B14 B2B3 K11K10 J0I0 F14F13 O7N7 N11O11 N11O11 N14O14 A11A12 H7H6 H1H0 E14F14 C9B9 J10J9 N0M0 H11H10 D14D13 H1G1 L6L5 M11N11 G11G10 J2J3 H0G0 K4K3 L4M4 N12O12 M10N10 K3L3 C5C4 C6B6 M5M4 A4A3 F13E13 B1B0 I6I5 G7G8 E4E3 M8M9 J12J13 L9K9 M9M10 J1I1 F2E2 G12H12 G6H6 G9G8 J14K14 J4I4 H14H13 F2F1 C3B3 J8J9 O1O0 D7D8 C1C0" />
    <trip id="10" depart="10.00" from="B11B10" to="K8L8" via="L10K10 L10K10 K5K6 F3F2 B6B7 L0K0 B13B14 J7J8 H2H1 G9G8 C2B2 E4E5 E7E8 H1I1 F3F4 M5M4 M11M12 D14C14 H8G8 M4M5 J12J11 I3H3 K13K12 D12E12 N13N12 F7G7 B0A0 L11K11 C6D6 G4F4 E5D5 F2F1 J13J14 F4E4 B14C14 B2C2 G8G7 K6K5 J1J0 H0I0 B13C13 H12G12 M13M14 H6G6 H4G4 F5F4 J1I1 K4J4 F11F12 G11G12 F14F13 G7F7 L5L6 E1E2 G13G12 A3B3 B13B14 N9M9 G12F12 C4B4 M10M9 M7L7 H12H13 J9J10" />
    <trip id="11" depart="11.00" from="J12K12" to="I3H3" via="G6H6 L10L11 D13D12 M6M7 J1I1 J1J0 K9K8 H2G2 B2B3 G2F2 C13B13 M12M13 I5I4 O9O10 C14C13 A5A6 H12H11 K4K3 D5E5 N5N6 J2J3 E1F1 B6C6 L11L12 D4C4 L3M3 L5M5 L10L9 J14I14 K12K11 E6D6 F12F13 E13E14 C3C4 H9H10 N3N2 J6I6 F7E7 G12H12 M6M7 E9D9 G10H10 L0K0 C9C8 F6E6 F1G1 E11F11 N2N1 N0M0 N13O13 K6K5 D11D12 B11A11 O12O13 H7I7 A0B0 M9M8 L13K13 B8C8 L4M4 D4C4 H6H7 K12J12 I1H1" />
    <trip id="12" depart="12.00" from="L0L1" to="O4O5" via="G13H13 H11I11 N1O1 A9B9 C6D6 N9M9 H12I12 H5G5 A8A7 A6A5 L12L11 O11O10 M10M11 H10I10 N11N12 O2N2 H6I6 N13N12 G10H10 C9C8 N11N12 G12F12 C13C12 J13J12 G2F2 J6K6 O4O3 F2E2 N8O8 O0N0 N5N6 G1G0 G9H9 E6D6 H5H6 L5K5 K2K1 B0A0 M3M4 C10D10 I2J2 D4D5 M2M3 K6J6 M6M7 G2F2 K7J7 N7N6 D1E1 H7H8 K3K4 D9C9 B9B10 D12E12 K12L12 O10O11 K14K13 C4B4 G10F10 N1N2 J11I11 C3C4 C0B0 I12J12" />
    <trip id="13" depart="13.00" from="G0G1" to="I5H5" via="D12E12 G3G2 K13K14 A10A11 K4L4 F11F10 J8J9 H13H12 N0M0 G9F9 F9F8 C11C12 N0M0 A11A10 E3E4 A12A11 E4D4 C2C3 E7D7 E8D8 A6B6 G7F7 M5M6 N6N5 N12M12 E10E9 N4O4 A3B3 M9N9 C3D3 F1F0 L1L0 H1H2 F2F3 N11N12 O3O4 N6N5 J7J6 H6H7 A10A11 L0L1 D11C11 L2L1 M0L0 K10L10 L11L10 C14B14 L5M5 O7O8 C10C9 F3F2 I5I6 L4L3 G11G12 O14N14 N1N0 M10M9 K13K12 H8H9 L13L14 O6O5 I7J7 E11E12 F5F4" />
    <trip id="14" depart="14.00" from="J4J3" to="D11C11" via="G3G4 I12J12 O3N3 K0L0 N11M11 O10O11 B11B12 N0N1 I6J6 I7J7 M10M9 I14H14 A4A3 L14L13 G3F3 C1C2 K11L11 C2D2 E11E10 I5I6 N2M2 M1L1 L7M7 I1H1 N0N1 G0F0 D10C10 G0F0 I9H9 E3D3 D8D7 M13M14 H12H11 J6I6 M5M6 E11E12 K7L7 B0C0 M10L10 A8A9 L5L4 M1M0 J1I1 G2H2 E3E4 K12L12 N11N12 I11I12 E9E10 G11G10 I5I6 I5H5 G12H12 J13I13 C2D2 B0B1 L14K14 E12F12 H0G0 C2C3 D5D4 E9E8 O13O12 A4A5" />
    <trip id="15" depart="15.00" from="F7G7" to="L13L14" via="N4O4 K8K7 G12G11 C4C3 N10M10 D13D12 J12I12 H5H6 H9I9 G14G13 O10O9 J13K13 M1M0 M7L7 B6A6 H0H1 G13H13 G1H1 M14L14 C0C1 N4N5 D13C13 E9D9 F5F4 K0L0 I0H0 O12N12 O12O11 C2D2 O3O4 G8F8 J5I5 D4E4 M13N13 F12F11 I3I4 E10D10 F12F13 M12M11 E4F4 C0B0 N7M7 M12N12 D4C4 E10D10 E12E11 C11D11 J12K12 O12O13 H10I10 K11K10 I11I12 M4M3 N7N6 G11F11 J1J2 A14A13 L6L5 J12J13 G5F5 H0G0 K12L12 K4L4 M0L0" />
    <trip id="16" depart="16.00" from="K13J13" to="E8E7" via="D5D6 L2K2 O4O5 J0I0 D0E0 A13A14 F3F4 E1E2 I0H0 I6H6 D9E9 F4F5 K4J4 I13J13 I4I5 I0H0 M12M11 D7D6 F7E7 E10D10 D9D10 K1L1 L6K6 K2J2 L4L3 B6A6 D3D4 I5I4 I1J1 E2D2 D10D9 B11B12 L9L10 A0B0 B2C2 J10J9 L3L2 E5E4 D14C14 J0J1 C4C5 J7I7 F7F6 K1K0 K11J11 M13N13 E8F8 H3H4 N6O6 F4E4 C12C13 J1I1 K13K14 B13B14 L1K1 A14A13 I1H1 C9D9 C9D9 D0C0 C7B7 D2D3 C12D12 M13L13" />
    <trip id="17" depart="17.00" from="L13M13" to="L3K3" via="K7J7 K4L4 D14E14 O9O8 E10E9 I3I2 H7G7 F9G9 H7H8 F9G9 I10I9 D5D4 D3E3 M14M13 B9B8 B12C12 A1A0 E10F10 I8H8 L5K5 B13B12 M13M14 D12C12 N1N0 M0L0 D2E2 F1F0 C9C10 B9B8 E10D10 D0D1 B6A6 F4E4 L4L5 F14E14 I6I5 D6E6 D6C6 I2I1 B0A0 C0D0 I5H5 O3O2 K8K7 L14K14 A11A12 L0M0 H6H7 F5F6 C0D0 E3E2 O9O10 A12A13 K0J0 K9K10 M8N8 F2F1 I10J10 D6D5 M3N3 M1N1 O7N7 I4I5 E1F1" />
    <trip id="18" depart="18.00" from="G10F10" to="K0K1" via="M3M4 A4A5 N13O13 O2N2 N13O13 E5F5 M13N13 L0L1 L3L2 N13N14 J7K7 M2N2 O6O5 F9F10 I3H3 I14H14 E4E3 O0O1 E2E1 C12B12 C4D4 L9L8 L0L1 G9H9 J5I5 E6F6 F5E5 E2F2 L11M11 F14E14 J7J6 L8L7 H12H13 J4J3 J0J1 M11N11 L12L11 F13F14 B12C12 K5J5 I9H9 K1K0 B4A4 B6C6 J8J9 J9J10 D8D9 N9M9 C10C11 E10F10 D11D12 A7A6 D9D8 C2C3 G12H12 A6B6 O10O11 H8H9 E12E11 H0H1 F8F7 L6L5 J8J9 A10B10" />
    <trip id="19" depart="19.00" from="K10J10" to="H8H9" via="M14M13 L9L10 I10I9 J1J0 B9A9 F3E3 J10I10 L14L13 B0A0 K10L10 D13D12 O5N5 I0H0 O3N3 C12C11 G3H3 K1J1 A12A13 M10M9 O5O4 O3N3 E0D0 M8L8 C9C8 J13J14 H1H2 B5A5 I13H13 J14I14 K8L8 C10D10 F8E8 A8B8 C13D13 H12H11 L7M7 A12B12 O9O10 I1I2 M13L13 I6I7 D13E13 K9J9 C6D6 B2A2 M11L11 D12D13 J5J6 J4J5 I10I9 F14G14 H3G3 K14J14 H7H8 O5O4 G4F4 D7D6 L12L13 J13J12 O9O10 B10B11 D8C8 J13K13 N7O7" />
    <trip id="20" depart="20.00" from="O0O1" to="H14G14" via="E12E11 E9F9 E10F10 H13H14 J8K8 D4C4 K14K13 C4B4 B7C7 J8J7 A7B7 O6N6 O12O13 D2E2 E7D7 D12D13 G13H13 K7K8 L14L13 N9N8 A5A6 G12F12 D9D10 I11H11 I8I9 I13J13 J4J5 N2N1 M2N2 F3F4 E6E7 O7N7 E6F6 J1J2 D11D10 F11E11 L1L2 C9C8 G13G12 B5C5 M13M14 A11B11 N6O6 L7L6 N10O10 B0B1 N11N10 J5J6 I9I8 N2N1 K8J8 L9K9 A5B5 H12H11 N3M3 B3C3 O13O14 L9K9 M11M10 D8E8 I8H8 J3J2 N8N9 J3J2" />
    <trip id="21" depart="21.00" from="E13E12" to="N2N1" via="I14J14 E9D9 E3D3 D9D10 M9M8 C7B7 G9G10 N2N3 M2M1 L10M10 K0K1 K0J0 K11L11 B9B8 M13L13 I1H1 A12B12 J11I11 L5L6 K12J12 D5C5 E7E8 M3M4 G3H3 J14K14 C1C0 C2D2 L12L11 C6D6 H7H6 G6G5 D12E12 F7F8 G5G6 L2L3 L5K5 L7K7 N9N8 G8F8 D9D10 J6I6 B2C2 B3B4 N0M0 B3B2 M14L14 A8A9 G4F4 J5J4 K0L0 N4N5 D8D7 C6C5 J12I12 I11J11 K11K12 D2E2 I9I8 B11C11 C5B5 N8N9 K9J9 B10B9 N0M0" />
    <trip id="22" depart="22.00" from="D7E7" to="N9O9" via="D3C3 B8B9 L3L4 D1E1 H14H13 J12I12 K3J3 N10M10 N12M12 G2G1 H5I5 G0H0 L9K9 D11C11 C0D0 A0A1 I14H14 B13C13 M5M4 J7J8 I13J13 E9E8 H3H4 J13K13 O2O3 F12F11 D10D9 D5D4 M1M0 F12F11 H12G12 G5G4 M1N1 O11O12 B14C14 H6H5 C5C4 D12C12 K9K10 E11E10 E10E11 I0H0 I2H2 F10E10 N9N8 L7L8 F1E1 A11A12 B7C7 L6K6 M14N14 N1O1 B2B1 G7F7 I13I14 D2E2 J8J9 D9D10 K6K7 F8F9 F12G12 F13F14 B13B14 K14K13" />
    <trip id="23" depart="23.00" from="N8O8" to="H13G13" via="E5E4 C6C5 L13L12 L14K14 L12M12 O11O10 J14K14 I2J2 D0D1 L2M2 H13G13 K4K3 E12F12 I12I13 A8A7 L3L2 A10B10 N7N6 N1N2 N9N8 B5B6 B4C4 B6B7 K13L13 L5M5 O14O13 C5C6 D1D2 G14G13 A3A2 O12O11 G2G1 L14M14 O0O1 O11N11 F7G7 A3B3 E5F5 D7D8 H8I8 L13K13 H10I10 B10C10 G13H13 E2D2 L14L13 N12N13 C3C2 I8I9 M12N12 A12A11 M0L0 C6C7 G10G9 C1C2 C11D11 M8M7 E10E9 I6I5 I9I8 D9C9 B7C7 F11G11 N9N8" />
    <trip id="24" depart="24.00" from="I12I13" to="E7F7" via="M0N0 K4L4 E13E14 B9B10 M4M5 H13I13 G1H1 F10G10 N4N5 K5J5 D12D11 G1G2 E4D4 N5M5 H11G11 C13B13 M14L14 K9K8 F2F1 E12F12 B9B10 F10E10 I6I5 H10H11 F3F4 J4K4 A1A2 J1J2 B11C11 N7M7 B7A7 D10D9 M7M8 B4C4 J12J13 M12L12 M10L10 N6N7 I10I11 H10I10 L8M8 B13A13 O10N10 F13F14 K9L9 O10O9 I4I3 D4E4 B3C3 M7M6 K9K8 H1I1 D1C1 H13G13 D14E14 C4C3 G9G10 G4G3 B6A6 A12B12 F1F0 O8O7 E14F14 D2D1" />
    <trip id="25" depart="25.00" from="G6H6" to="L10L11" via="J8J7 M13M12 I4J4 G12F12 B3B4 D11D10 D6E6 G11H11 I11H11 F4G4 A8B8 G10G9 E10E9 M10M11 D2E2 E3F3 D8C8 E8E7 M13N13 O2O1 K10K9 B4B3 G14H14 O2O3 I3I2 N5N6 J0K0 K6J6 G3G4 D6D5 M7M8 F10F11 B10B9 G10G11 N3M3 K6J6 D13D14 E3E4 E11E12 B2B3 G11G12 I11I10 K9J9 I3H3 J0J1 M6M7 G3G2 D12D13 B4C4 F13F14 H5H4 F2E2 G11G10 A8A7 J12I12 J13K13 D0E0 N1N2 G11H11 F0E0 G8F8 K4K5 J12J13 H5H4" />
    <trip id="26" depart="26.00" from="H13H14" to="C13C14" via="M1M2 N1N0 C6C7 C12B12 G10G11 O6N6 O6O7 E9F9 J9K9 A14A13 A13B13 I7H7 I6I7 K10K9 J10J11 J10I10 B8B9 B5B4 H3I3 M7M6 L3M3 G2F2 C3C2 G14F14 H14G14 F0G0 N9N8 L8M8 O3O4 I12I13 L1K1 K5L5 H8H7 M11N11 N2M2 M2N2 C9C10 I2J2 E4E3 F11F12 M11L11 K1K2 K12L12 J10K10 D7D6 B12B11 J7I7 G1F1 J4J3 O9O10 F13G13 D6D5 E14D14 C7C6 B3A3 M9M8 E1E0 L11K11 D11C11 A12B12 F1F2 D11D12 N12O12 A2B2" />
    <trip id="27" depart="27.00" from="E6E5" to="E4E3" via="D10D11 D3D4 L2L3 C8D8 I7J7 I2I1 A6B6 K11K12 M10M9 E10F10 F12E12 M13M12 L8L7 J12J13 C12C13 M13M12 I12I11 A2A1 I4H4 J6J5 H13I13 F0E0 D7D8 N14O14 G13G12 K5K6 E7D7 I10H10 H12I12 L12L11 F9F10 I4I3 K8J8 K4L4 N8N7 D2C2 O9O8 F0E0 N6O6 M6M5 E14D14 K10L10 I5I4 E8F8 I7J7 N0O0 K10K11 B3B4 B7B6 K3K2 E0D0 B11C11 H1H0 H14G14 H4H3 J3J4 D5C5 J11K11 A8A9 D6C6 J7I7 N6N5 N14N13 O9N9" />
    <trip id="28" depart="28.00" from="L3L2" to="H10I10" via="C8C9 I8J8 N6N5 O9O8 J12J11 O10O9 G12H12 M13M12 J1I1 F4E4 G8H8 I7I6 M13M12 H10H11 M7N7 I11I12 J7I7 E14F14 K9K10 E14F14 C6C7 E6E5 H14I14 I4I5 N0N1 K5K4 L1L0 B8B7 A7A6 D10C10 M0L0 J11J12 K4L4 E9E8 E6E7 L10L9 G0F0 M14N14 E11E12 E3D3 J2J1 I12I13 N0M0 K1K2 A6A7 F11G11 I0I1 E10D10 O5O6 G10H10 K3L3 F10G10 M9N9 D0C0 I12J12 N9N8 E1D1 F1F0 K1K0 G13G14 J9K9 O14O13 B13B14 D0C0" />
    <trip id="29" depart="29.00" from="A12A11" to="E10D10" via="D11D10 D12D11 J1J2 C8C7 F6F5 A3B3 E9D9 N11M11 K7L7 I13J13 B7B8 L6M6 K12L12 C13C12 A3A4 N7M7 N5O5 K7K6 D11C11 I2I1 O9O8 N10O10 M6M7 H4G4 D11D12 D7D6 F0E0 O4O5 K4K3 M7M6 C6C5 J10J9 D6E6 D7E7 B3B4 J14K14 H8H9 G7F7 H2H1 D1D2 D5C5 J8K8 K10K9 B7A7 L8L7 B8A8 I13I12 F10F9 M3M4 B12B11 E10E11 L13K13 F0G0 L10L11 E4F4 A0A1 E3E2 A3A2 K3J3 H3H2 O9O8 F12E12 F3F4 K10J10" />
    <trip id="30" depart="30.00" from="E7E8" to="M9N9" via="E7F7 E4E3 O4N4 D10E10 E12E11 B14A14 K7K8 I7H7 D4C4 B6B7 K2K1 E7E6 E14D14 G7G6 O10N10 M3N3 B5B4 K6J6 N1N0 O14O13 L11M11 B4B3 G9H9 G9H9 L12K12 N11O11 H1H2 J14I14 M2L2 A12A13 A9A8 D1C1 C9C8 N10N9 E6D6 O10N10 D7E7 K2K1 K10L10 A4A5 D7E7 O6N6 I5H5 N11O11 O5N5 H1H2 E0E1 G1H1 I0H0 J6I6 C2C3 I2J2 K9J9 M0M1 I10I11 A1A0 B5A5 N10N9 A1A2 E14E13 N9N8 M1M0 K3K4 N7N8" />
    <trip id="31" depart="31.00" from="G1H1" to="D3D4" via="I11I12 J14I14 J10I10 B11C11 J7K7 K8J8 M1M2 M6M5 N4N3 J2K2 C2C3 H12H13 D2D3 E1E0 L4K4 I0H0 L7K7 O1N1 O0O1 E12E13 J13I13 D9C9 A2A1 F11E11 K7L7 B12B11 N12N13 B6B7 E8F8 F13G13 N4M4 L4M4 G0F0 L4L5 F10E10 F8G8 M2M1 I9I10 L6L5 F1E1 G4G3 M13L13 G8F8 A1A0 D10C10 E2E3 J1J0 J1I1 E1F1 I9I8 J11J12 E3D3 K2K1 E12E11 N11O11 G13F13 M6M5 B14C14 F3F2 K11K10 N3O3 K3K2 A8A7 L13L14" />
    <trip id="32" depart="32.00" from="E6E7" to="N13N12" via="O14N14 J12K12 C12C13 C13C14 N12M12 J13J14 L12L11 B11A11 A5B5 C13C12 L13L12 G9F9 I11J11 J12I12 J7J6 H10G10 L6K6 K0K1 B12C12 D1D2 C12B12 L2M2 F8F7 I4I5 I1I0 F13F12 B10B11 C4C3 M7N7 C5D5 L13M13 M9M10 J6I6 H8H9 H9H8 O1O0 E4D4 J0I0 L14M14 G0H0 C8B8 D7D8 G4F4 E5E6 K5K4 A1A0 G10G11 D3C3 K3J3 N7N6 E5E4 K2J2 C6D6 M6N6 E12E11 O9O10 I1I2 D13D14 G12G13 B6B7 E1E0 I13H13 N12O12 I8I7" />
    <trip id="33" depart="33.00" from="A2A3" to="C10D10" via="C9D9 O7O6 D1D0 D11E11 N11N12 D4E4 N13M13 M0M1 N10N9 J12J13 O5N5 K9K8 I14H14 F12F13 J11K11 J4K4 I4H4 L4L5 J13I13 B2B1 J8I8 K1J1 I9H9 M12M13 A1A2 L6L7 I3I2 I12I11 N14O14 J12K12 M4L4 E5D5 J8J9 H3H4 K4K3 A3A4 H6H7 K6K7 E8E9 E2E1 J0I0 C0B0 K0J0 F6G6 K13K14 L7M7 H10I10 A0A1 E9D9 K1K0 F1G1 E10E9 G1H1 C11C12 O13O14 A4A5 M7N7 L6M6 O0O1 I4J4 A2A1 F3F2 D11D12 L3L4" />
    <trip id="34" depart="34.00" from="D13E13" to="N10O10" via="K3K2 B9B8 M3N3 B1B2 J13K13 E4F4 J8J9 G7G8 G2G1 B4B5 E12F12 O7O6 D1E1 K9J9 F13E13 M13M12 M2L2 M5M4 D12D11 H12G12 E10F10 H3G3 F12F13 J3J4 O4O3 N14N13 D5C5 B5C5 E4E3 H13H12 J8I8 G3F3 N10M10 A8A9 K10K11 G14G13 F4E4 G6H6 D6D7 F2G2 K13K12 M13L13 I8I7 C6C7 E3D3 C10C11 J4K4 F2E2 H5H4 M13M14 N14O14 G2G1 F9G9 N4N3 F13F12 F12E12 C10C11 D0D1 K3K2 H10H9 J7K7 N7N6 D1E1 O3N3" />
    <trip id="35" depart="35.00" from="C1C2" to="H14G14" via="J11J10 I9J9 E3D3 E3D3 M1M2 E1E2 D2E2 C7D7 G1G2 C7C8 E12E13 J8I8 L4L3 G0F0 L10L11 D10D9 H10H9 G5G4 D4E4 N10M10 D5C5 I14J14 L7L6 D9D10 K5J5 H6H5 F5F4 F12F13 G14F14 G11G12 D0D1 L9L10 F10E10 A11A12 N9M9 M7L7 N11N12 I10J10 B0B1 M5N5 J7K7 L7L6 M12L12 B14B13 K4K3 C5C6 K14L14 M2N2 J9J8 L10K10 F2G2 C1B1 G0F0 D1E1 L10K10 L11L10 O7O6 I10I9 E4E3 A5B5 G2H2 N6N5 G7G8 K6K5" />
    <trip id="36" depart="36.00" from="E14D14" to="E13F13" via="A8A7 I1I2 J3I3 I8I9 M7L7 F8G8 G6G5 E10E9 N13N14 L6K6 N10O10 J9I9 H5H4 K9L9 F0G0 J12J11 B9B8 F6G6 E10F10 O8O9 C0B0 H4H5 G6G5 K10J10 I8J8 B2B1 O9O8 E4E3 I7H7 N9N10 E14E13 B13C13 B9B10 I1I2 M3L3 O2O3 F11G11 D8E8 O5N5 N4N5 D6E6 O4O3 L7L6 C3D3 I6H6 F12G12 B10C10 G5G6 G1G2 L14M14 B10B11 L1M1 F1E1 B7B6 D4D5 B4C4 A13A14 N3M3 D4D5 D4D3 A4B4 L14K14 C1D1 M11M10" />
    <trip id="37" depart="37.00" from="M7N7" to="K4K5" via="M1N1 L8L7 I11I12 E6D6 E2D2 K3L3 G4G3 A6A5 I6I5 F1F0 O14O13 N4O4 A12B12 I9I8 J6I6 I11H11 M10M11 J13I13 B12C12 C13C14 A6B6 G1G0 N12N13 D11D12 J10K10 N11N12 I7I8 J1I1 M8M9 M14M13 N0M0 F0G0 K2L2 G0H0 M8M7 J3J2 B1B0 E10E9 I1I2 A10A9 G13H13 D7D8 L9L8 M13L13 D12C12 J7I7 C10B10 G7G6 L8L9 N3N4 M10M9 H3H4 A6A7 M0M1 L2L3 J4K4 O5N5 N1O1 K4L4 I5J5 O2O3 E3E2 I7I6 H0G0" />
    <trip id="38" depart="38.00" from="I14J14" to="N11N12" via="E1D1 I6I5 B12B13 A4A3 O12N12 I9J9 J12I12 D1E1 I2I1 A0B0 C3C2 I1H1 I4I5 G0F0 J8I8 L2M2 D12E12 N5N4 H11G11 M9M10 M11M10 H10H11 H1G1 D12C12 B12B11 J11K11 D4D5 B4C4 B5C5 M5M4 H13H12 M13N13 D1E1 L11K11 H13H14 J2J3 M10L10 I11I10 N5O5 F1E1 H1H2 J2K2 N9O9 E13F13 F1G1 J3J2 G7F7 C11D11 D2D3 M13M14 A5B5 J7J6 M9L9 G5F5 L14L13 I10I11 J9K9 B2B3 B3A3 N4N5 E8F8 C11C10 N1O1 D13C13" />
    <trip id="39" depart="39.00" from="C6D6" to="K8L8" via="A3A2 J11I11 K9K10 A7A6 F5E5 F9F10 C3C4 E8D8 N3M3 I2I1 E5E6 A1A2 H3H2 K2J2 J10K10 G10G9 K1K2 H13I13 N13O13 M2L2 D14D13 I9H9 L14M14 L10M10 O4O5 N3O3 G12G13 K3J3 B9B10 B2B1 H1H0 E4D4 K1K0 H9G9 I13I14 B12A12 K9L9 D2C2 E6E5 A10B10 F5G5 B6A6 J13K13 A6B6 O1O2 O1O0 E8F8 O6O7 M5L5 K7L7 H7H8 G11G10 D5D4 C2D2 M4L4 G13H13 J7K7 B14B13 J13I13 G9G8 B4B3 A12A13 N5M5 D4D5" />
    <trip id="40" depart="40.00" from="N5N6" to="O5O6" via="F12F13 N8M8 J9I9 B8C8 A11B11 C5B5 L7L8 D8C8 I12H12 M2M1 G6F6 A11A12 B7B6 G10G11 O4O5 F13G13 H12H11 C8D8 O0O1 L14L13 H8G8 K7K8 L7K7 F12G12 C8B8 B5B4 D13E13 J12K12 C11D11 N9M9 N11O11 I2H2 A8A9 I5H5 E8D8 O12O13 L1L0 C9C8 G6G5 N2O2 C4D4 G14F14 F10G10 C5D5 D14D13 E4D4 K13J13 B6B5 E4E3 A7A8 I5H5 O11O10 B3C3 B4B5 M4M3 J0K0 E13E12 L8M8 K6K5 G1H1 K12K11 H8H9 L6L5 N14N13" />
    <trip id="41" depart="41.00" from="F12F13" to="I5I4" via="H1I1 M13N13 B7B8 N13O13 A14A13 C1C0 I6J6 J3J4 M8M7 I8I9 C9C10 N4O4 N12M12 A8B8 F8E8 L13K13 E7E8 N11N12 I4H4 C7D7 O12N12 O1O0 I0H0 N3O3 H3H4 H8H7 K3J3 I3I4 K14J14 O10O9 M2M1 C10C9 C7C8 N10N9 O13O12 M4N4 A12A13 G1G2 M12N12 E0D0 N1M1 C10B10 L6M6 K9J9 K14K13 F9F8 K6K7 I7J7 D10C10 F10F11 E12E11 F10F9 I13H13 A3A4 G6F6 M3L3 K6K7 K3K4 D8E8 D10C10 M6N6 D0C0 J10K10 I2J2" />
    <trip id="42" depart="42.00" from="F4G4" to="H5H6" via="B1B2 L11L12 D0D1 A12A13 K14K13 D8D7 O2O3 G3G4 C9B9 C8C7 F2F1 C12C11 D1C1 I1I2 G6G5 H14H13 E14E13 G9F9 O2O3 M7M6 H0H1 O5O4 A7B7 H12G12 L11M11 F14G14 G7G6 H3G3 C10B10 B9A9 D3C3 G10G9 F3F2 C4D4 F2F1 D5D6 J1K1 E3F3 B14B13 J2J3 L14L13 D14D13 N7M7 L8L7 J3I3 L14L13 K12K13 D5E5 B4C4 A9A10 C6D6 G10H10 D5D6 E14D14 D3E3 F9F8 A4A5 K4J4 F7G7 G6H6 I12I11 G3F3 N10N9 B13C13" />
    <trip id="43" depart="43.00" from="A7A6" to="L3L2" via="D7D8 B13C13 O2N2 G11H11 K9L9 H10I10 J11I11 H9G9 H3H4 F11E11 J10K10 M12M13 F3E3 K2K1 F1E1 M5N5 I9I10 D1C1 N8N7 H14G14 F3F4 E2D2 M5M4 D3C3 L3L2 J9J8 G6G5 D11E11 K13K12 A11B11 K5K4 I1H1 M14M13 L13M13 B12C12 G8F8 H5I5 M10M11 L11L10 J7J8 K7K8 N13N12 E3F3 J10K10 H8G8 H0I0 M9N9 C3C4 A14B14 B3C3 L10M10 F1F2 J1K1 N11O11 E5F5 C12D12 I5I6 D4C4 I13J13 C11C10 L10L11 L9L8 O13O12 D8D7" />
    <trip id="44" depart="44.00" from="D6D5" to="K11J11" via="M13M12 N6O6 H10I10 M5N5 G9G10 B5B6 H0H1 N3O3 L5K5 E8E7 O9N9 M10M9 G4G3 M0N0 G1G2 B12B13 J8I8 I9I10 J10J11 B10C10 K8K7 E0E1 M4M5 K11J11 I6J6 E12E11 G4H4 N9M9 E2E3 C1D1 D0E0 H6H7 D11C11 H7H6 J2K2 L11K11 F13G13 C9C10 E10E11 D9C9 O7O6 I2I1 A13A12 J11J12 A3B3 G5F5 O1N1 M5L5 L1L0 G2H2 O2O3 D5D4 F0E0 J3J2 E7F7 A12B12 J1J0 D2D1 K2K3 M8M7 B11C11 H11H12 J6J5 G7H7" />
    <trip id="45" depart="45.00" from="H14I14" to="B8B7" via="M5M4 D3D4 M13M14 O13O14 C6C5 O13N13 E5E4 I3I2 I8J8 D12D11 G8H8 C11C12 C0B0 K12K13 K13J13 H3H2 M0L0 I4I5 E3E2 D2D1 L9L8 G11F11 E13E12 B4B5 C6B6 I8I7 H5I5 G8F8 E11D11 J7J6 N8O8 D4D5 J7J6 J4K4 C2B2 L9L10 B1B2 K14K13 B12B11 G12G13 J10K10 N5O5 J5J4 C1C2 K1J1 K11J11 M3M4 H14G14 G7G8 N13M13 D13C13 D5C5 A7A8 K5K6 J0K0 D7C7 K14K13 E12F12 I14I13 L1L0 D8D7 C7B7 D8D7 K1J1" />
    <trip id="46" depart="46.00" from="H6I6" to="J1J2" via="O3O4 F1G1 A10B10 H12G12 I13H13 K12K13 E12E13 L1K1 C9D9 C5B5 J2J3 C12B12 E4E5 O12O11 A13A12 N7O7 C9C10 L13L14 N1N2 K12J12 F10E10 K3L3 H6G6 B1B0 D8D9 D12C12 L11M11 G14H14 J9J10 C11B11 H7G7 M4L4 E0D0 O9O8 C7C6 E0F0 C3D3 I7I8 M9M8 H8I8 B0C0 H10G10 O4O3 M9N9 E8D8 J2K2 H9H10 G1G0 D6D7 H3I3 I6I5 N11O11 L5K5 J12J11 I11I12 L9L10 N4M4 G0H0 M5M4 H5G5 D3D2 D5D4 O2O1 L2K2" />
    <trip id="47" depart="47.00" from="I3I2" to="E13D13" via="O12O11 K13L13 F11E11 G12H12 G6H6 M2N2 I12H12 K13J13 C14B14 D14E14 C6C5 I2I3 A13A14 G8G9 F13E13 E7F7 I13H13 G2G1 E13E12 F14E14 N1N2 F1F2 N7N8 J11I11 O0O1 H0G0 A4B4 E8E7 G9H9 N5N4 D2D3 L2L3 E5F5 O8N8 F13G13 F2G2 I12J12 F1F0 I1J1 M13L13 H6H7 L1L0 G2G1 A8A9 J3K3 I7I8 B5B4 C2C1 C6C5 K2J2 N12N13 E5E6 I3J3 O1O2 B0A0 H3I3 F8F7 O10N10 C5C6 A7A8 I7H7 O11O10 M13M14 N14O14" />
    <trip id="48" depart="48.00" from="K11L11" to="N5M5" via="N13N12 D10C10 G13F13 K1L1 L14M14 B13B12 N1N2 G6F6 O10N10 A3A4 E13D13 O3O2 H7I7 E3D3 N7N6 M1M2 D6D7 M4M3 E14E13 D8D9 H9H10 M11N11 C12B12 O13N13 B3B2 G12G11 F11F10 I7J7 N11N12 N9N10 F6E6 J8J9 N12N13 H10H9 I4I3 I4J4 M6M5 H10I10 M5M6 I11H11 E4F4 G11G10 O1O0 E0D0 K10J10 G1F1 M9M10 O8N8 H4H5 G5G4 I3I2 B11C11 K8J8 D6D5 B6B7 J3I3 M9M8 J5J4 B0A0 B1C1 J13I13 B8A8 N8N7 M2M1" />
    <trip id="49" depart="49.00" from="D3C3" to="K12L12" via="K6K7 F8F9 F0F1 K10K9 L10L11 I13J13 D6D5 F5E5 F14E14 N12N11 C11C10 K14K13 I3I4 M5M6 H1G1 H1I1 F1F2 I7I8 D2C2 G8G9 I6I5 M9M10 H1H0 L12L11 B6B7 N12O12 O5O4 I0H0 J11I11 L1K1 L1L2 A13A14 C0C1 E0E1 C8B8 L11L10 N7N8 G7G6 D5E5 L13K13 O10N10 K0K1 G12G11 K2J2 E7E8 F2E2 C3C2 L14L13 J7J8 L8M8 M3M4 N3N2 A8A9 H14I14 B14B13 H7I7 L8L9 H13G13 C14C13 H6H7 N2M2 D0D1 G13G12 N5N4" />
    <trip id="50" depart="50.00" from="M10M11" to="H7H6" via="L12L13 H7H8 I5I6 E2E1 J5J6 A9A10 B5C5 G7G8 M9M8 E11F11 D6D5 I11I10 L6L5 D1E1 H11I11 M12L12 C1D1 L6L5 G10G11 C14C13 A3B3 M8L8 A12B12 K4K5 J6J5 E12E11 M7L7 G11G12 K6K5 K4L4 H10H9 B3A3 E4D4 A10B10 C8C7 K5K6 N4O4 N14M14 B1B0 L3M3 M8L8 M8M9 N3N4 M14M13 L4M4 G5G6 N2N1 N0N1 B5C5 M13L13 K6K7 L4L3 E8D8 N9M9 O8O7 H11G11 J4J3 N12O12 M6N6 K6L6 J13K13 C1C2 D4D5 C4B4" />
    <trip id="51" depart="51.00" from="F10F9" to="D1D0" via="N11N10 O2O1 C4D4 N9M9 F0E0 L7K7 A13A12 H8H7 H9I9 F12F13 E4E5 H13G13 O1O0 L13M13 G3H3 N6N5 E2E3 H7I7 F3F4 K7K6 F3E3 B14B13 H1H0 F7G7 I3I2 B11B10 O10O11 A9A8 G1G0 O3O4 C11C12 O5O6 F1F0 N10N9 L5L4 H9G9 G10G9 A14A13 L12L13 I0I1 O12O11 N4O4 L4L3 N2N3 O11N11 F2E2 L10L11 H1H0 K5L5 K12K11 D8D9 O7N7 C6B6 G1G0 I12I11 N9M9 M7N7 H10G10 J4J3 L5M5 E0F0 I4I3 C6C5 A1A0" />
    <trip id="52" depart="52.00" from="K2K3" to="M6M7" via="K7J7 C13B13 C11B11 E13E12 N2N3 L12L13 C11C12 L1L0 H13H14 E6D6 N2N1 C3C4 A11B11 L14M14 C2D2 C13D13 G13G12 B1B2 E12F12 M5L5 N5N4 D14D13 A3B3 E3E2 G10G9 N4N5 L5K5 B2A2 B4C4 D14C14 L6L5 A0A1 J0K0 I10I9 O7O6 N3N4 A3B3 H13H12 H10G10 M1L1 E13E14 A1B1 L6L5 F5F6 A13A12 L9M9 O7N7 O3O4 G0H0 F2E2 A2B2 G12G13 G12G13 C3D3 F2G2 E1F1 C2C3 H10G10 N8O8 O14N14 F12E12 I11H11 C5C6 D13C13" />
    <trip id="53" depart="53.00" from="K4K3" to="D10C10" via="C11B11 A13A12 O0O1 G10H10 K10L10 D7D8 I11I10 G7G8 L0M0 J0J1 I5I6 D9D10 I5H5 E14D14 C10B10 D2C2 I9J9 N11N12 F9G9 L7K7 L9L8 E12F12 D11E11 J11J10 M6M7 M11M12 G14G13 C6D6 O4O3 C12B12 E4E3 G11G10 D10D11 J12J13 L3L4 D0D1 I11J11 B7B6 I4I5 B2B1 N12N11 F4E4 B6B5 I13I14 L1L2 L3L4 B0B1 J10K10 M13M12 J5J4 J10J11 I5I6 D8E8 E10F10 I7J7 G11G12 I4I5 L0M0 L13L12 O10N10 M3N3 F2E2 E10E9 C2D2" />
    <trip id="54" depart="54.00" from="F5F4" to="G8F8" via="H12G12 L12L13 D13D12 I0I1 A7B7 M13M14 L8M8 M2M1 D11D10 D1D2 J2J3 N2N1 F7F6 N2N3 E0D0 F8F7 C13C12 J12I12 L5K5 F11G11 E13D13 F5E5 I13I12 E9E8 G0H0 I13I14 E4E3 G11G12 N2N3 H2G2 D14D13 J4J5 G5F5 N1N0 E6F6 A4A5 D2C2 K14J14 G12G11 I7I8 K7K8 N4N5 E1E2 I3I2 G8G9 F0E0 M3M4 H13G13 B4B5 G7F7 N6N7 M4L4 E3E4 D12D11 F0F1 M13N13 C2C3 J14J13 J6I6 O4O3 H7H8 N2O2 K11L11 G13F13" />
    <trip id="55" depart="55.00" from="K2K1" to="M6M5" via="L14M14 K3K2 J14I14 C9D9 A12A13 J11J10 L5K5 C3C2 M5N5 C9B9 H10I10 B9C9 E11D11 C9B9 J5J6 E13D13 G2H2 C9B9 F4F5 E6E7 M0N0 H3H4 O10N10 B10A10 D1D0 J13J12 K5K4 M11N11 B12B13 O5O4 L14K14 O1N1 D13E13 I6J6 L13K13 H7G7 O2O1 I12H12 O6O5 E8D8 G12G13 B4A4 N9N10 M8M9 A1A0 J14K14 M8M9 J3J4 C10B10 M11M10 H8G8 O12O13 L8L9 D4D3 I0H0 E7E8 L4L3 F11F10 G6H6 E4E5 O10O11 N4N5 N14M14 I10I9" />
    <trip id="56" depart="56.00" from="O1O0" to="L11M11" via="D1C1 F13E13 H3H4 J7J6 G2G3 E9E8 K13J13 C2C1 K11L11 J11K11 D13E13 I7I6 I12J12 J4J5 G2H2 J0K0 L5M5 B6B7 M9M8 G9F9 H10G10 I13I14 K14K13 H0G0 G9H9 O2N2 M2L2 H0H1 H1G1 N9N8 E4D4 L2L1 K13K14 H6G6 K14L14 F9E9 F11G11 H4H3 E10E11 F9G9 M1M2 E11E12 J14J13 N14N13 B9C9 E11E10 K12K13 I2J2 A7A6 D11D10 E14F14 J3J4 O4O3 E13D13 E1D1 H7H6 J7J8 E10D10 A8A9 H5H6 H1H2 M1L1 C8B8 I3I2" />
    <trip id="57" depart="57.00" from="F12G12" to="D13D12" via="O7O8 A11A10 J2I2 G9G8 E14E13 G8H8 J9K9 D5E5 C3C2 B8A8 L8L7 E1E2 G7G8 N4O4 F1F2 M9N9 C14D14 D1D0 B14B13 B3B4 J10J9 F9G9 N13N12 F5F4 M0M1 B5C5 J8J7 B0C0 E10F10 D14E14 C7B7 L10M10 F2G2 G1H1 I2H2 B3A3 I13J13 D11C11 F3F2 M1M2 N12O12 G2H2 G11G10 M13M12 I5H5 M4N4 D6E6 B3B4 H6H5 K6L6 B0B1 G10F10 K14J14 K14J14 F10F11 D6D7 B6B5 L8K8 F2F1 F13F14 D2D3 G0H0 O0N0 F10G10" />
    <trip id="58" depart="58.00" from="D14C14" to="J6J7" via="E10D10 G7G6 L9M9 D5C5 K1K2 D12C12 L14M14 N14N13 O0N0 O13N13 J1J0 K14L14 M7M8 E1F1 O6O7 B13C13 A12A11 F0F1 N5N4 E5F5 C13D13 L0L1 J1K1 K1L1 B11C11 F9F8 E14D14 J12K12 J0K0 L4M4 J10I10 A4B4 M8M7 G14F14 K9K10 M6M5 A9B9 J0J1 G1F1 L3K3 K6K5 F7F6 H14I14 I6H6 E1E2 K6L6 K4J4 J1K1 B4A4 K8K7 J2J1 B11B12 H4H5 E0D0 N0O0 L6K6 K0L0 F9F8 A2A1 D7D6 N11O11 N10O10 C12B12 B8A8" />
    <trip id="59" depart="59.00" from="O6N6" to="J13I13" via="F13F12 I9I8 G4G5 A3A2 L12K12 E11E12 M14L14 K7L7 J3J4 O8O7 N3O3 C10C11 H10H9 M5M6 D8E8 N13N12 I4H4 I11H11 N12N13 G12G13 C12B12 M1N1 M12L12 J3I3 J1I1 L3L2 G6H6 G13F13 E6E5 I9H9 M3M4 L10M10 J1I1 J10I10 C7B7 L8L9 H5G5 B4A4 L4M4 C13C14 N0O0 E3E4 O13O12 K12K11 I5I6 L10M10 M12L12 G10G9 K1K2 J3J2 O11N11 L13L12 H10G10 F7F6 B13B12 L4L3 K13K12 K12K13 B12C12 B12B13 K14J14 I6H6 H5H6 K0L0" />
    <trip id="60" depart="60.00" from="G1F1" to="B2C2" via="C10D10 E8E9 E9E10 O6N6 M14M13 A9A8 D2C2 C14B14 H12I12 H4H3 J3K3 J2I2 C13C14 J8J9 O4O5 D6D5 O12O13 A2A3 N13M13 K5K6 H4H5 F10F11 L0L1 E6E7 M9M8 E6D6 G6H6 N9N10 I8I9 I3H3 J12I12 K3J3 A2A1 A1A0 N2N1 J4J5 H9H8 I5H5 K3K4 D5C5 K7K6 J3J4 K6J6 C14B14 G13F13 F0E0 H12H13 A7B7 B7B8 H7G7 K8J8 A6A7 J14K14 F4F5 K8L8 H10H9 C1C0 E13E14 H1G1 C10B10 N14N13 N6N5 D1E1 D14E14" />
    <trip id="61" depart="61.00" from="A12A11" to="H10I10" via="D11C11 E8D8 N14O14 L6L7 K9J9 A5A6 L2L1 O6N6 A8A7 N8N7 C7C8 G7H7 G13G12 B12B13 L3K3 B13C13 B0A0 H8G8 O7O6 G9G10 N9O9 K2K1 F12G12 I9I8 I9H9 N7M7 F4F3 B0A0 G4G3 I2I3 K12J12 B3B4 M8M7 O7O6 D11E11 B12A12 J11J12 M2M1 O11N11 I2J2 E10D10 F9F10 A0A1 H1I1 G1H1 D10C10 A1A0 B6C6 N11M11 L9L8 F7G7 G11H11 J14K14 A7A8 N2N3 M9L9 F5F6 O9N9 N12O12 D7C7 K3K4 G5G4 O13O14 E0F0" />
    <trip id="62" depart="62.00" from="N7N8" to="H8I8" via="H13H12 I14I13 A10B10 E12D12 B5A5 J5J4 I12H12 J10I10 L3L2 A5A4 I10J10 G8G7 O7O6 G10F10 J7J8 K0K1 C8C9 B4C4 M4L4 C7B7 G8G7 K10K11 N12N11 G1G2 O14O13 G9H9 N12N13 I11I10 A2A3 M5L5 J13K13 B2B3 C3C4 G8G7 D2C2 E0F0 F14F13 D9E9 E11D11 H7H6 B4B5 A11A12 L8L9 F1F2 N3N2 B10B9 K5L5 I4J4 G14G13 N7O7 L12M12 A10B10 J8J7 C7C6 C1D1 E9D9 F10G10 K11J11 D7D6 G11H11 O13O12 I12I11 I11H11 N2N3" />
    <trip id="63" depart="63.00" from="G10G9" to="B4C4" via="G12G13 O12N12 F13F14 A2B2 G1G2 J2J3 C7B7 G8G7 B13C13 B13C13 M0L0 N7N8 D9D8 K2L2 K5J5 K3J3 M11N11 B7A7 N5O5 D12E12 I6I5 H7G7 A7B7 N1N2 D4D3 M14N14 L0L1 G3H3 N4N3 G10F10 D9E9 D1D0 M14L14 D11C11 B5A5 A6A7 I10J10 C11D11 A10A9 L13K13 K6K7 L5L6 E10F10 H0G0 D1D2 L2K2 C2B2 N12N13 K5K4 N0N1 B1B2 G5H5 D12E12 O1N1 L10L11 L7L6 I9I8 M14L14 L11M11 G13G14 D9D10 M6L6 N9N8 K4K5" />
    <trip id="64" depart="64.00" from="H0I0" to="J5K5" via="M3M2 G3G2 N13M13 B9B8 J5K5 H0I0 N0M0 J6J7 O1N1 I0I1 B7C7 H5G5 C10C11 N14O14 H0I0 H2G2 C10D10 A13A12 J7I7 G5H5 L10L9 J9J10 H5G5 O10O9 D12D13 E0F0 G9H9 C9B9 L14L13 F4F3 D10D9 G11F11 C8C7 M7M6 E12E13 C2B2 I5I4 F3F2 B11B10 L6K6 E0D0 G4H4 K1J1 F4F3 B9C9 B7B6 J0I0 D13D14 B6B7 J8K8 F7E7 D9D8 I9J9 J3J2 K1L1 B8C8 L2L1 M1N1 D2D1 N14O14 F8G8 E1E2 B11C11 M11M12" />
    <trip id="65" depart="65.00" from="N3N4" to="A1A2" via="H11G11 M11L11 D5D4 I12H12 I10I9 C11B11 H12H13 F9G9 E1E2 H10H9 M12L12 I4I5 G3G2 B2B1 A9A8 A10B10 G5H5 C8C7 N1M1 L10K10 D0E0 K9L9 A2A3 N0M0 L0L1 J2K2 N6M6 L9M9 N11M11 C9C10 F11G11 B10B11 O7O6 K2L2 C10D10 C8B8 N11N10 M10L10 F0F1 A5A4 N12N13 G0F0 K8J8 L13M13 M10M9 L9K9 N14M14 E6E7 O7N7 I11J11 A5B5 B0A0 B8B7 G12G11 I10H10 J5J4 C3B3 H4H5 I9J9 D5D6 I9H9 G2F2 E5E4 E8E9" />
    <trip id="66" depart="66.00" from="B6B5" to="A7A8" via="D0C0 G0F0 I9J9 L1M1 I12H12 M8N8 H2I2 F12F11 I11J11 L14M14 K9K10 N9O9 E12E11 H10H11 C11D11 H14I14 C1C2 A3A2 L1M1 E1F1 M11L11 C9D9 N12O12 A14A13 D12E12 C13C14 O7N7 N0N1 M0M1 H3G3 D5D4 G14H14 I2I1 A10B10 I14I13 N13M13 O12N12 K2K1 I9J9 E14E13 J3J4 D11C11 K12L12 L5M5 D7D6 F13E13 B3B2 C0C1 D2C2 D9E9 C6C7 J12I12 D0C0 B12C12 D11E11 G0F0 C2C1 D2E2 O3N3 E13F13 O9O10 M6N6 N11N10 N1N0" />
    <trip id="67" depart="67.00" from="A9A8" to="M2M1" via="M2L2 H3H2 H8I8 A4A3 C5C6 H11H10 C5C4 L12L13 J6K6 E8E9 L3M3 K8K9 C8D8 N7N6 N5N6 I4I5 H12H13 C9C10 N4N3 A4A3 E3D3 C13D13 E10E9 C12C13 C0D0 I7I6 C11D11 G5H5 D13C13 A2A3 N1N0 F0F1 H6G6 G12F12 H0H1 K3K4 C8C7 J10J9 J14K14 J11J12 E6E5 A5B5 M7M8 G6G7 D10D11 C3C4 E12F12 I9I8 I1H1 G9H9 C7C8 K1K2 H14G14 N13N12 F12G12 I13H13 O7O6 O11O12 I5I4 C11D11 B5C5 K6J6 C9C8 D1E1" />
    <trip id="68" depart="68.00" from="N0N1" to="O11N11" via="G6F6 M11M10 M1M2 J3I3 N2O2 E4F4 F5G5 J14J13 L6M6 I1H1 D14D13 K3L3 M2M1 D4C4 A13A14 N4N5 C2D2 A14A13 O4O5 B7A7 C9C10 L2L1 L11K11 D10D9 G11F11 F9F10 C3C2 C5C6 F2E2 H9H8 H9I9 J5I5 K9J9 K7K8 N9N8 E4E3 H0G0 G8F8 O7N7 E3E2 H6G6 C3D3 H1H0 O6O7 G12F12 M10M9 F12F13 A5A4 G12G11 J10K10 M6M7 C3C2 F4F3 G7H7 J13I13 D11D10 M11M12 O10O11 O2N2 E11D11 A5B5 K4K3 A4A3 B10C10" />