<?xml version='1.0' encoding='us-ascii'?>
<additional xmlns:xsi="http://www.w3.org/2001/XMLSchema-instance" xsi:noNamespaceSchemaLocation="http://sumo.dlr.de/xsd/additional_file.xsd">
	<poly id="building-0_0-0_0" type="building" fill="1" layer="-1.0" color="128,128,128" shape="14.999999999999996,14.999999999999996 51.66666666666666,14.999999999999996 51.66666666666666,51.66666666666666 14.999999999999996,51.66666666666666 14.999999999999996,14.999999999999996" height="20.950" />
	<poly id="building-0_0-0_1" type="building" fill="1" layer="-1.0" color="128,128,128" shape="14.999999999999996,56.66666666666667 51.66666666666666,56.66666666666667 51.66666666666666,93.33333333333333 14.999999999999996,93.33333333333333 14.999999999999996,56.66666666666667" height="40.433" />
	<poly id="building-0_0-0_2" type="building" fill="1" layer="-1.0" color="128,128,128" shape="14.999999999999996,98.33333333333333 51.66666666666666,98.33333333333333 51.66666666666666,135.0 14.999999999999996,135.0 14.999999999999996,98.33333333333333" height="39.063" />
	<poly id="building-0_1-0_0" type="building" fill="1" layer="-1.0" color="128,128,128" shape="56.66666666666667,14.999999999999996 93.33333333333333,14.999999999999996 93.33333333333333,51.66666666666666 56.66666666666667,51.66666666666666 56.66666666666667,14.999999999999996" height="24.393" />
	<poly id="building-0_1-0_1" type="building" fill="1" layer="-1.0" color="128,128,128" shape="56.66666666666667,56.66666666666667 93.33333333333333,56.66666666666667 93.33333333333333,93.33333333333333 56.66666666666667,93.33333333333333 56.66666666666667,56.66666666666667" height="26.250" />
	<poly id="building-0_1-0_2" type="building" fill="1" layer="-1.0" color="128,128,128" shape="56.66666666666667,98.33333333333333 93.33333333333333,98.33333333333333 93.33333333333333,135.0 56.66666666666667,135.0 56.66666666666667,98.33333333333333" height="24.902" />
	<poly id="building-0_2-0_0" type="building" fill="1" layer="-1.0" color="128,128,128" shape="98.33333333333333,14.999999999999996 135.0,14.999999999999996 135.0,51.66666666666666 98.33333333333333,51.66666666666666 98.33333333333333,14.999999999999996" height="11.729" />
	<poly id="building-0_2-0_1" type="building" fill="1" layer="-1.0" color="128,128,128" shape="98.33333333333333,56.66666666666667 135.0,56.66666666666667 135.0,93.33333333333333 98.33333333333333,93.33333333333333 98.33333333333333,56.66666666666667" height="24.673" />
	<poly id="building-0_2-0_2" type="building" fill="1" layer="-1.0" color="128,128,128" shape="98.33333333333333,98.33333333333333 135.0,98.33333333333333 135.0,135.0 98.33333333333333,135.0 98.33333333333333,98.33333333333333" height="39.453" />
	<poly id="building-0_0-1_0" type="building" fill="1" layer="-1.0" color="128,128,128" shape="14.999999999999996,165.0 51.66666666666666,165.0 51.66666666666666,201.66666666666669 14.999999999999996,201.66666666666669 14.999999999999996,165.0" height="41.188" />
	<poly id="building-0_0-1_1" type="building" fill="1" layer="-1.0" color="128,128,128" shape="14.999999999999996,206.66666666666666 51.66666666666666,206.66666666666666 51.66666666666666,243.33333333333334 14.999999999999996,243.33333333333334 14.999999999999996,206.66666666666666" height="21.110" />
	<poly id="building-0_0-1_2" type="building" fill="1" layer="-1.0" color="128,128,128" shape="14.999999999999996,248.3333333333333 51.66666666666666,248.3333333333333 51.66666666666666,284.99999999999994 14.999999999999996,284.99999999999994 14.999999999999996,248.3333333333333" height="39.665" />
	<poly id="building-0_1-1_0" type="building" fill="1" layer="-1.0" color="128,128,128" shape="56.66666666666667,165.0 93.33333333333333,165.0 93.33333333333333,201.66666666666669 56.66666666666667,201.66666666666669 56.66666666666667,165.0" height="28.879" />
	<poly id="building-0_1-1_1" type="building" fill="1" layer="-1.0" color="128,128,128" shape="56.66666666666667,206.66666666666666 93.33333333333333,206.66666666666666 93.33333333333333,243.33333333333334 56.66666666666667,243.33333333333334 56.66666666666667,206.66666666666666" height="31.036" />
	<poly id="building-0_1-1_2" type="building" fill="1" layer="-1.0" color="128,128,128" shape="56.66666666666667,248.3333333333333 93.33333333333333,248.3333333333333 93.33333333333333,284.99999999999994 56.66666666666667,284.99999999999994 56.66666666666667,248.3333333333333" height="42.434" />
	<poly id="building-0_2-1_0" type="building" fill="1" layer="-1.0" color="128,128,128" shape="98.33333333333333,165.0 135.0,165.0 135.0,201.66666666666669 98.33333333333333,201.66666666666669 98.33333333333333,165.0" height="10.513" />
	<poly id="building-0_2-1_1" type="building" fill="1" layer="-1.0" color="128,128,128" shape="98.33333333333333,206.66666666666666 135.0,206.66666666666666 135.0,243.33333333333334 98.33333333333333,243.33333333333334 98.33333333333333,206.66666666666666" height="43.489" />
	<poly id="building-0_2-1_2" type="building" fill="1" layer="-1.0" color="128,128,128" shape="98.33333333333333,248.3333333333333 135.0,248.3333333333333 135.0,284.99999999999994 98.33333333333333,284.99999999999994 98.33333333333333,248.3333333333333" height="16.085" />
	<poly id="building-0_0-2_0" type="building" fill="1" layer="-1.0" color="128,128,128" shape="14.999999999999996,315.0 51.66666666666666,315.0 51.66666666666666,351.66666666666663 14.999999999999996,351.66666666666663 14.999999999999996,315.0" height="48.287" />
	<poly id="building-0_0-2_1" type="building" fill="1" layer="-1.0" color="128,128,128" shape="14.999999999999996,356.6666666666667 51.66666666666666,356.6666666666667 51.66666666666666,393.3333333333333 14.999999999999996,393.3333333333333 14.999999999999996,356.6666666666667" height="49.765" />
	<poly id="building-0_0-2_2" type="building" fill="1" layer="-1.0" color="128,128,128" shape="14.999999999999996,398.3333333333333 51.66666666666666,398.3333333333333 51.66666666666666,434.99999999999994 14.999999999999996,434.99999999999994 14.999999999999996,398.3333333333333" height="40.971" />
	<poly id="building-0_1-2_0" type="building" fill="1" layer="-1.0" color="128,128,128" shape="56.66666666666667,315.0 93.33333333333333,315.0 93.33333333333333,351.66666666666663 56.66666666666667,351.66666666666663 56.66666666666667,315.0" height="25.076" />
	<poly id="building-0_1-2_1" type="building" fill="1" layer="-1.0" color="128,128,128" shape="56.66666666666667,356.6666666666667 93.33333333333333,356.6666666666667 93.33333333333333,393.3333333333333 56.66666666666667,393.3333333333333 56.66666666666667,356.6666666666667" height="25.595" />
	<poly id="building-0_1-2_2" type="building" fill="1" layer="-1.0" color="128,128,128" shape="56.66666666666667,398.3333333333333 93.33333333333333,398.3333333333333 93.33333333333333,434.99999999999994 56.66666666666667,434.99999999999994 56.66666666666667,398.3333333333333" height="28.551" />
	<poly id="building-0_2-2_0" type="building" fill="1" layer="-1.0" color="128,128,128" shape="98.33333333333333,315.0 135.0,315.0 135.0,351.66666666666663 98.33333333333333,351.66666666666663 98.33333333333333,315.0" height="10.051" />
	<poly id="building-0_2-2_1" type="building" fill="1" layer="-1.0" color="128,128,128" shape="98.33333333333333,356.6666666666667 135.0,356.6666666666667 135.0,393.3333333333333 98.33333333333333,393.3333333333333 98.33333333333333,356.6666666666667" height="25.113" />
	<poly id="building-0_2-2_2" type="building" fill="1" layer="-1.0" color="128,128,128" shape="98.33333333333333,398.3333333333333 135.0,398.3333333333333 135.0,434.99999999999994 98.33333333333333,434.99999999999994 98.33333333333333,398.3333333333333" height="25.359" />
	<poly id="building-0_0-3_0" type="building" fill="1" layer="-1.0" color="128,128,128" shape="14.999999999999996,465.0 51.66666666666666,465.0 51.66666666666666,501.66666666666663 14.999999999999996,501.66666666666663 14.999999999999996,465.0" height="29.089" />
	<poly id="building-0_0-3_1" type="building" fill="1" layer="-1.0" color="128,128,128" shape="14.999999999999996,506.6666666666667 51.66666666666666,506.6666666666667 51.66666666666666,543.3333333333334 14.999999999999996,543.3333333333334 14.999999999999996,506.6666666666667" height="48.519" />
	<poly id="building-0_0-3_2" type="building" fill="1" layer="-1.0" color="128,128,128" shape="14.999999999999996,548.3333333333334 51.66666666666666,548.3333333333334 51.66666666666666,585.0000000000001 14.999999999999996,585.0000000000001 14.999999999999996,548.3333333333334" height="13.904" />
	<poly id="building-0_1-3_0" type="building" fill="1" layer="-1.0" color="128,128,128" shape="56.66666666666667,465.0 93.33333333333333,465.0 93.33333333333333,501.66666666666663 56.66666666666667,501.66666666666663 56.66666666666667,465.0" height="23.965" />
	<poly id="building-0_1-3_1" type="building" fill="1" layer="-1.0" color="128,128,128" shape="56.66666666666667,506.6666666666667 93.33333333333333,506.6666666666667 93.33333333333333,543.3333333333334 56.66666666666667,543.3333333333334 56.66666666666667,506.6666666666667" height="26.596" />
	<poly id="building-0_1-3_2" type="building" fill="1" layer="-1.0" color="128,128,128" shape="56.66666666666667,548.3333333333334 93.33333333333333,548.3333333333334 93.33333333333333,585.0000000000001 56.66666666666667,585.0000000000001 56.66666666666667,548.3333333333334" height="28.006" />
	<poly id="building-0_2-3_0" type="building" fill="1" layer="-1.0" color="128,128,128" shape="98.33333333333333,465.0 135.0,465.0 135.0,501.66666666666663 98.33333333333333,501.66666666666663 98.33333333333333,465.0" height="22.487" />
	<poly id="building-0_2-3_1" type="building" fill="1" layer="-1.0" color="128,128,128" shape="98.33333333333333,506.6666666666667 135.0,506.6666666666667 135.0,543.3333333333334 98.33333333333333,543.3333333333334 98.33333333333333,506.6666666666667" height="36.507" />
	<poly id="building-0_2-3_2" type="building" fill="1" layer="-1.0" color="128,128,128" shape="98.33333333333333,548.3333333333334 135.0,548.3333333333334 135.0,585.0000000000001 98.33333333333333,585.0000000000001 98.33333333333333,548.3333333333334" height="20.863" />
	<poly id="building-0_0-4_0" type="building" fill="1" layer="-1.0" color="128,128,128" shape="14.999999999999996,615.0 51.66666666666666,615.0 51.66666666666666,651.6666666666667 14.999999999999996,651.6666666666667 14.999999999999996,615.0" height="49.014" />
	<poly id="building-0_0-4_1" type="building" fill="1" layer="-1.0" color="128,128,128" shape="14.999999999999996,656.6666666666666 51.66666666666666,656.6666666666666 51.66666666666666,693.3333333333334 14.999999999999996,693.3333333333334 14.999999999999996,656.6666666666666" height="26.224" />
	<poly id="building-0_0-4_2" type="building" fill="1" layer="-1.0" color="128,128,128" shape="14.999999999999996,698.3333333333334 51.66666666666666,698.3333333333334 51.66666666666666,735.0000000000001 14.999999999999996,735.0000000000001 14.999999999999996,698.3333333333334" height="43.828" />
	<poly id="building-0_1-4_0" type="building" fill="1" layer="-1.0" color="128,128,128" shape="56.66666666666667,615.0 93.33333333333333,615.0 93.33333333333333,651.6666666666667 56.66666666666667,651.6666666666667 56.66666666666667,615.0" height="26.368" />
	<poly id="building-0_1-4_1" type="building" fill="1" layer="-1.0" color="128,128,128" shape="56.66666666666667,656.6666666666666 93.33333333333333,656.6666666666666 93.33333333333333,693.3333333333334 56.66666666666667,693.3333333333334 56.66666666666667,656.6666666666666" height="16.943" />
	<poly id="building-0_1-4_2" type="building" fill="1" layer="-1.0" color="128,128,128" shape="56.66666666666667,698.3333333333334 93.33333333333333,698.3333333333334 93.33333333333333,735.0000000000001 56.66666666666667,735.0000000000001 56.66666666666667,698.3333333333334" height="30.377" />
	<poly id="building-0_2-4_0" type="building" fill="1" layer="-1.0" color="128,128,128" shape="98.33333333333333,615.0 135.0,615.0 135.0,651.6666666666667 98.33333333333333,651.6666666666667 98.33333333333333,615.0" height="41.919" />
	<poly id="building-0_2-4_1" type="building" fill="1" layer="-1.0" color="128,128,128" shape="98.33333333333333,656.6666666666666 135.0,656.6666666666666 135.0,693.3333333333334 98.33333333333333,693.3333333333334 98.33333333333333,656.6666666666666" height="33.886" />
	<poly id="building-0_2-4_2" type="building" fill="1" layer="-1.0" color="128,128,128" shape="98.33333333333333,698.3333333333334 135.0,698.3333333333334 135.0,735.0000000000001 98.33333333333333,735.0000000000001 98.33333333333333,698.3333333333334" height="27.489" />
	<poly id="building-0_0-5_0" type="building" fill="1" layer="-1.0" color="128,128,128" shape="14.999999999999996,765.0 51.66666666666666,765.0 51.66666666666666,801.6666666666667 14.999999999999996,801.6666666666667 14.999999999999996,765.0" height="31.019" />
	<poly id="building-0_0-5_1" type="building" fill="1" layer="-1.0" color="128,128,128" shape="14.999999999999996,806.6666666666666 51.66666666666666,806.6666666666666 51.66666666666666,843.3333333333334 14.999999999999996,843.3333333333334 14.999999999999996,806.6666666666666" height="25.953" />
	<poly id="building-0_0-5_2" type="building" fill="1" layer="-1.0" color="128,128,128" shape="14.999999999999996,848.3333333333334 51.66666666666666,848.3333333333334 51.66666666666666,885.0000000000001 14.999999999999996,885.0000000000001 14.999999999999996,848.3333333333334" height="48.708" />
	<poly id="building-0_1-5_0" type="building" fill="1" layer="-1.0" color="128,128,128" shape="56.66666666666667,765.0 93.33333333333333,765.0 93.33333333333333,801.6666666666667 56.66666666666667,801.6666666666667 56.66666666666667,765.0" height="14.907" />
	<poly id="building-0_1-5_1" type="building" fill="1" layer="-1.0" color="128,128,128" shape="56.66666666666667,806.6666666666666 93.33333333333333,806.6666666666666 93.33333333333333,843.3333333333334 56.66666666666667,843.3333333333334 56.66666666666667,806.6666666666666" height="40.958" />
	<poly id="building-0_1-5_2" type="building" fill="1" layer="-1.0" color="128,128,128" shape="56.66666666666667,848.3333333333334 93.33333333333333,848.3333333333334 93.33333333333333,885.0000000000001 56.66666666666667,885.0000000000001 56.66666666666667,848.3333333333334" height="13.636" />
	<poly id="building-0_2-5_0" type="building" fill="1" layer="-1.0" color="128,128,128" shape="98.33333333333333,765.0 135.0,765.0 135.0,801.6666666666667 98.33333333333333,801.6666666666667 98.33333333333333,765.0" height="21.059" />
	<poly id="building-0_2-5_1" type="building" fill="1" layer="-1.0" color="128,128,128" shape="98.33333333333333,806.6666666666666 135.0,806.6666666666666 135.0,843.3333333333334 98.33333333333333,843.3333333333334 98.33333333333333,806.6666666666666" height="23.626" />
	<poly id="building-0_2-5_2" type="building" fill="1" layer="-1.0" color="128,128,128" shape="98.33333333333333,848.3333333333334 135.0,848.3333333333334 135.0,885.0000000000001 98.33333333333333,885.0000000000001 98.33333333333333,848.3333333333334" height="48.595" />
	<poly id="building-0_0-6_0" type="building" fill="1" layer="-1.0" color="128,128,128" shape="14.999999999999996,915.0 51.66666666666666,915.0 51.66666666666666,951.6666666666667 14.999999999999996,951.6666666666667 14.999999999999996,915.0" height="28.069" />
	<poly id="building-0_0-6_1" type="building" fill="1" layer="-1.0" color="128,128,128" shape="14.999999999999996,956.6666666666666 51.66666666666666,956.6666666666666 51.66666666666666,993.3333333333334 14.999999999999996,993.3333333333334 14.999999999999996,956.6666666666666" height="47.521" />
	<poly id="building-0_0-6_2" type="building" fill="1" layer="-1.0" color="128,128,128" shape="14.999999999999996,998.3333333333334 51.66666666666666,998.3333333333334 51.66666666666666,1035.0 14.999999999999996,1035.0 14.999999999999996,998.3333333333334" height="16.964" />
	<poly id="building-0_1-6_0" type="building" fill="1" layer="-1.0" color="128,128,128" shape="56.66666666666667,915.0 93.33333333333333,915.0 93.33333333333333,951.6666666666667 56.66666666666667,951.6666666666667 56.66666666666667,915.0" height="14.713" />
	<poly id="building-0_1-6_1" type="building" fill="1" layer="-1.0" color="128,128,128" shape="56.66666666666667,956.6666666666666 93.33333333333333,956.6666666666666 93.33333333333333,993.3333333333334 56.66666666666667,993.3333333333334 56.66666666666667,956.6666666666666" height="44.771" />
	<poly id="building-0_1-6_2" type="building" fill="1" layer="-1.0" color="128,128,128" shape="56.66666666666667,998.3333333333334 93.33333333333333,998.3333333333334 93.33333333333333,1035.0 56.66666666666667,1035.0 56.66666666666667,998.3333333333334" height="17.339" />
	<poly id="building-0_2-6_0" type="building" fill="1" layer="-1.0" color="128,128,128" shape="98.33333333333333,915.0 135.0,915.0 135.0,951.6666666666667 98.33333333333333,951.6666666666667 98.33333333333333,915.0" height="31.614" />
	<poly id="building-0_2-6_1" type="building" fill="1" layer="-1.0" color="128,128,128" shape="98.33333333333333,956.6666666666666 135.0,956.6666666666666 135.0,993.3333333333334 98.33333333333333,993.3333333333334 98.33333333333333,956.6666666666666" height="21.329" />
	<poly id="building-0_2-6_2" type="building" fill="1" layer="-1.0" color="128,128,128" shape="98.33333333333333,998.3333333333334 135.0,998.3333333333334 135.0,1035.0 98.33333333333333,1035.0 98.33333333333333,998.3333333333334" height="17.328" />
	<poly id="building-0_0-7_0" type="building" fill="1" layer="-1.0" color="128,128,128" shape="14.999999999999996,1065.0 51.66666666666666,1065.0 51.66666666666666,1101.6666666666665 14.999999999999996,1101.6666666666665 14.999999999999996,1065.0" height="40.087" />
	<poly id="building-0_0-7_1" type="building" fill="1" layer="-1.0" color="128,128,128" shape="14.999999999999996,1106.6666666666667 51.66666666666666,1106.6666666666667 51.66666666666666,1143.3333333333333 14.999999999999996,1143.3333333333333 14.999999999999996,1106.6666666666667" height="35.426" />
	<poly id="building-0_0-7_2" type="building" fill="1" layer="-1.0" color="128,128,128" shape="14.999999999999996,1148.3333333333333 51.66666666666666,1148.3333333333333 51.66666666666666,1184.9999999999998 14.999999999999996,1184.9999999999998 14.999999999999996,1148.3333333333333" height="19.043" />
	<poly id="building-0_1-7_0" type="building" fill="1" layer="-1.0" color="128,128,128" shape="56.66666666666667,1065.0 93.33333333333333,1065.0 93.33333333333333,1101.6666666666665 56.66666666666667,1101.6666666666665 56.66666666666667,1065.0" height="13.319" />
	<poly id="building-0_1-7_1" type="building" fill="1" layer="-1.0" color="128,128,128" shape="56.66666666666667,1106.6666666666667 93.33333333333333,1106.6666666666667 93.33333333333333,1143.3333333333333 56.66666666666667,1143.3333333333333 56.66666666666667,1106.6666666666667" height="29.672" />
	<poly id="building-0_1-7_2" type="building" fill="1" layer="-1.0" color="128,128,128" shape="56.66666666666667,1148.3333333333333 93.33333333333333,1148.3333333333333 93.33333333333333,1184.9999999999998 56.66666666666667,1184.9999999999998 56.66666666666667,1148.3333333333333" height="38.382" />
	<poly id="building-0_2-7_0" type="building" fill="1" layer="-1.0" color="128,128,128" shape="98.33333333333333,1065.0 135.0,1065.0 135.0,1101.6666666666665 98.33333333333333,1101.6666666666665 98.33333333333333,1065.0" height="16.216" />
	<poly id="building-0_2-7_1" type="building" fill="1" layer="-1.0" color="128,128,128" shape="98.33333333333333,1106.6666666666667 135.0,1106.6666666666667 135.0,1143.3333333333333 98.33333333333333,1143.3333333333333 98.33333333333333,1106.6666666666667" height="49.831" />
	<poly id="building-0_2-7_2" type="building" fill="1" layer="-1.0" color="128,128,128" shape="98.33333333333333,1148.3333333333333 135.0,1148.3333333333333 135.0,1184.9999999999998 98.33333333333333,1184.9999999999998 98.33333333333333,1148.3333333333333" height="10.217" />
	<poly id="building-0_0-8_0" type="building" fill="1" layer="-1.0" color="128,128,128" shape="14.999999999999996,1215.0 51.66666666666666,1215.0 51.66666666666666,1251.6666666666665 14.999999999999996,1251.6666666666665 14.999999999999996,1215.0" height="44.064" />
	<poly id="building-0_0-8_1" type="building" fill="1" layer="-1.0" color="128,128,128" shape="14.999999999999996,1256.6666666666667 51.66666666666666,1256.6666666666667 51.66666666666666,1293.3333333333333 14.999999999999996,1293.3333333333333 14.999999999999996,1256.6666666666667" height="19.032" />
	<poly id="building-0_0-8_2" type="building" fill="1" layer="-1.0" color="128,128,128" shape="14.999999999999996,1298.3333333333333 51.66666666666666,1298.3333333333333 51.66666666666666,1334.9999999999998 14.999999999999996,1334.9999999999998 14.999999999999996,1298.3333333333333" height="16.288" />
	<poly id="building-0_1-8_0" type="building" fill="1" layer="-1.0" color="128,128,128" shape="56.66666666666667,1215.0 93.33333333333333,1215.0 93.33333333333333,1251.6666666666665 56.66666666666667,1251.6666666666665 56.66666666666667,1215.0" height="28.615" />
	<poly id="building-0_1-8_1" type="building" fill="1" layer="-1.0" color="128,128,128" shape="56.66666666666667,1256.6666666666667 93.33333333333333,1256.6666666666667 93.33333333333333,1293.3333333333333 56.66666666666667,1293.3333333333333 56.66666666666667,1256.6666666666667" height="48.643" />
	<poly id="building-0_1-8_2" type="building" fill="1" layer="-1.0" color="128,128,128" shape="56.66666666666667,1298.3333333333333 93.33333333333333,1298.3333333333333 93.33333333333333,1334.9999999999998 56.66666666666667,1334.9999999999998 56.66666666666667,1298.3333333333333" height="27.296" />
	<poly id="building-0_2-8_0" type="building" fill="1" layer="-1.0" color="128,128,128" shape="98.33333333333333,1215.0 135.0,1215.0 135.0,1251.6666666666665 98.33333333333333,1251.6666666666665 98.33333333333333,1215.0" height="31.841" />
	<poly id="building-0_2-8_1" type="building" fill="1" layer="-1.0" color="128,128,128" shape="98.33333333333333,1256.6666666666667 135.0,1256.6666666666667 135.0,1293.3333333333333 98.33333333333333,1293.3333333333333 98.33333333333333,1256.6666666666667" height="31.298" />
	<poly id="building-0_2-8_2" type="building" fill="1" layer="-1.0" color="128,128,128" shape="98.33333333333333,1298.3333333333333 135.0,1298.3333333333333 135.0,1334.9999999999998 98.33333333333333,1334.9999999999998 98.33333333333333,1298.3333333333333" height="20.232" />
	<poly id="building-0_0-9_0" type="building" fill="1" layer="-1.0" color="128,128,128" shape="14.999999999999996,1365.0 51.66666666666666,1365.0 51.66666666666666,1401.6666666666665 14.999999999999996,1401.6666666666665 14.999999999999996,1365.0" height="28.553" />
	<poly id="building-0_0-9_1" type="building" fill="1" layer="-1.0" color="128,128,128" shape="14.999999999999996,1406.6666666666667 51.66666666666666,1406.6666666666667 51.66666666666666,1443.3333333333333 14.999999999999996,1443.3333333333333 14.999999999999996,1406.6666666666667" height="35.666" />
	<poly id="building-0_0-9_2" type="building" fill="1" layer="-1.0" color="128,128,128" shape="14.999999999999996,1448.3333333333333 51.66666666666666,1448.3333333333333 51.66666666666666,1484.9999999999998 14.999999999999996,1484.9999999999998 14.999999999999996,1448.3333333333333" height="33.058" />
	<poly id="building-0_1-9_0" type="building" fill="1" layer="-1.0" color="128,128,128" shape="56.66666666666667,1365.0 93.33333333333333,1365.0 93.33333333333333,1401.6666666666665 56.66666666666667,1401.6666666666665 56.66666666666667,1365.0" height="30.428" />
	<poly id="building-0_1-9_1" type="building" fill="1" layer="-1.0" color="128,128,128" shape="56.66666666666667,1406.6666666666667 93.33333333333333,1406.6666666666667 93.33333333333333,1443.3333333333333 56.66666666666667,1443.3333333333333 56.66666666666667,1406.6666666666667" height="10.204" />
	<poly id="building-0_1-9_2" type="building" fill="1" layer="-1.0" color="128,128,128" shape="56.66666666666667,1448.3333333333333 93.33333333333333,1448.3333333333333 93.33333333333333,1484.9999999999998 56.66666666666667,1484.9999999999998 56.66666666666667,1448.3333333333333" height="34.980" />
	<poly id="building-0_2-9_0" type="building" fill="1" layer="-1.0" color="128,128,128" shape="98.33333333333333,1365.0 135.0,1365.0 135.0,1401.6666666666665 98.33333333333333,1401.6666666666665 98.33333333333333,1365.0" height="30.234" />
	<poly id="building-0_2-9_1" type="building" fill="1" layer="-1.0" color="128,128,128" shape="98.33333333333333,1406.6666666666667 135.0,1406.6666666666667 135.0,1443.3333333333333 98.33333333333333,1443.3333333333333 98.33333333333333,1406.6666666666667" height="46.433" />
	<poly id="building-0_2-9_2" type="building" fill="1" layer="-1.0" color="128,128,128" shape="98.33333333333333,1448.3333333333333 135.0,1448.3333333333333 135.0,1484.9999999999998 98.33333333333333,1484.9999999999998 98.33333333333333,1448.3333333333333" height="47.370" />
	<poly id="building-0_0-10_0" type="building" fill="1" layer="-1.0" color="128,128,128" shape="14.999999999999996,1515.0 51.66666666666666,1515.0 51.66666666666666,1551.6666666666665 14.999999999999996,1551.6666666666665 14.999999999999996,1515.0" height="29.755" />
	<poly id="building-0_0-10_1" type="building" fill="1" layer="-1.0" color="128,128,128" shape="14.999999999999996,1556.6666666666667 51.66666666666666,1556.6666666666667 51.66666666666666,1593.3333333333333 14.999999999999996,1593.3333333333333 14.999999999999996,1556.6666666666667" height="30.080" />
	<poly id="building-0_0-10_2" type="building" fill="1" layer="-1.0" color="128,128,128" shape="14.999999999999996,1598.3333333333333 51.66666666666666,1598.3333333333333 51.66666666666666,1634.9999999999998 14.999999999999996,1634.9999999999998 14.999999999999996,1598.3333333333333" height="29.745" />
	<poly id="building-0_1-10_0" type="building" fill="1" layer="-1.0" color="128,128,128" shape="56.66666666666667,1515.0 93.33333333333333,1515.0 93.33333333333333,1551.6666666666665 56.66666666666667,1551.6666666666665 56.66666666666667,1515.0" height="39.847" />
	<poly id="building-0_1-10_1" type="building" fill="1" layer="-1.0" color="128,128,128" shape="56.66666666666667,1556.6666666666667 93.33333333333333,1556.6666666666667 93.33333333333333,1593.3333333333333 56.66666666666667,1593.3333333333333 56.66666666666667,1556.6666666666667" height="33.344" />
	<poly id="building-0_1-10_2" type="building" fill="1" layer="-1.0" color="128,128,128" shape="56.66666666666667,1598.3333333333333 93.33333333333333,1598.3333333333333 93.33333333333333,1634.9999999999998 56.66666666666667,1634.9999999999998 56.66666666666667,1598.3333333333333" height="16.569" />
	<poly id="building-0_2-10_0" type="building" fill="1" layer="-1.0" color="128,128,128" shape="98.33333333333333,1515.0 135.0,1515.0 135.0,1551.6666666666665 98.33333333333333,1551.6666666666665 98.33333333333333,1515.0" height="32.145" />
	<poly id="building-0_2-10_1" type="building" fill="1" layer="-1.0" color="128,128,128" shape="98.33333333333333,1556.6666666666667 135.0,1556.6666666666667 135.0,1593.3333333333333 98.33333333333333,1593.3333333333333 98.33333333333333,1556.6666666666667" height="48.212" />
	<poly id="building-0_2-10_2" type="building" fill="1" layer="-1.0" color="128,128,128" shape="98.33333333333333,1598.3333333333333 135.0,1598.3333333333333 135.0,1634.9999999999998 98.33333333333333,1634.9999999999998 98.33333333333333,1598.3333333333333" height="19.472" />
	<poly id="building-0_0-11_0" type="building" fill="1" layer="-1.0" color="128,128,128" shape="14.999999999999996,1665.0 51.66666666666666,1665.0 51.66666666666666,1701.6666666666665 14.999999999999996,1701.6666666666665 14.999999999999996,1665.0" height="23.352" />
	<poly id="building-0_0-11_1" type="building" fill="1" layer="-1.0" color="128,128,128" shape="14.999999999999996,1706.6666666666667 51.66666666666666,1706.6666666666667 51.66666666666666,1743.3333333333333 14.999999999999996,1743.3333333333333 14.999999999999996,1706.6666666666667" height="12.433" />
	<poly id="building-0_0-11_2" type="building" fill="1" layer="-1.0" color="128,128,128" shape="14.999999999999996,1748.3333333333333 51.66666666666666,1748.3333333333333 51.66666666666666,1784.9999999999998 14.999999999999996,1784.9999999999998 14.999999999999996,1748.3333333333333" height="24.689" />
	<poly id="building-0_1-11_0" type="building" fill="1" layer="-1.0" color="128,128,128" shape="56.66666666666667,1665.0 93.33333333333333,1665.0 93.33333333333333,1701.6666666666665 56.66666666666667,1701.6666666666665 56.66666666666667,1665.0" height="17.632" />
	<poly id="building-0_1-11_1" type="building" fill="1" layer="-1.0" color="128,128,128" shape="56.66666666666667,1706.6666666666667 93.33333333333333,1706.6666666666667 93.33333333333333,1743.3333333333333 56.66666666666667,1743.3333333333333 56.66666666666667,1706.6666666666667" height="31.553" />
	<poly id="building-0_1-11_2" type="building" fill="1" layer="-1.0" color="128,128,128" shape="56.66666666666667,1748.3333333333333 93.33333333333333,1748.3333333333333 93.33333333333333,1784.9999999999998 56.66666666666667,1784.9999999999998 56.66666666666667,1748.3333333333333" height="14.834" />
	<poly id="building-0_2-11_0" type="building" fill="1" layer="-1.0" color="128,128,128" shape="98.33333333333333,1665.0 135.0,1665.0 135.0,1701.6666666666665 98.33333333333333,1701.6666666666665 98.33333333333333,1665.0" height="14.268" />
	<poly id="building-0_2-11_1" type="building" fill="1" layer="-1.0" color="128,128,128" shape="98.33333333333333,1706.6666666666667 135.0,1706.6666666666667 135.0,1743.3333333333333 98.33333333333333,1743.3333333333333 98.33333333333333,1706.6666666666667" height="21.458" />