<?xml version="1.0" encoding="UTF-8"?>
<!-- generated on 2023-02-07 20:33:00.041812 by $Id$ v1_8_0+0044-4820708f3d
  options: -n drones.net.xml -b 0 -e 60 -p 1 <doubleminus>random -i 64 -o drones.trips.xml
-->
<routes>
    <trip id="0" depart="0.00" from="A2A1" to="C2C1" via="B2A2 B1A1 C2B2 A1B1 C1B1 B1B0 B1A1 B0B1 C0C1 A1A0 B0A0 C2C1 B1C1 B2A2 C2B2 C1B1 A2A1 B0B1 C1B1 C2B2 C1B1 C1C2 B0B1 B0C0 C0B0 B0B1 A0A1 C1B1 B1B0 B0B1 C0B0 A0B0 A1A0 C2B2 B0B1 C2C1 C2B2 A0B0 A1A2 B1B2 B2A2 C1C0 C1B1 C1C0 B0B1 B0A0 C1C2 A1A0 A0B0 C1C2 B1B0 B1A1 A2B2 C2C1 A0B0 B1B0 B1A1 B0B1 B1B0 A0B0 A1A2 B2A2 B2B1 A1A2" />
    <trip id="1" depart="1.00" from="A2A1" to="A2B2" via="A1A0 B1C1 B2A2 B1C1 B1B2 C0B0 B2A2 B2A2 B1B0 B1C1 A1A0 A2A1 A1A2 A1A0 C1C2 A1A0 B1B2 A0A1 C1B1 B0A0 C1C2 B1C1 C0C1 C0B0 C2B2 C1C2 A1A0 C0C1 B2C2 A2B2 A2B2 B1B0 B0B1 C1C0 B2A2 A0B0 B0A0 B1A1 C1C2 A0A1 C2C1 B2C2 B1A1 A1A2 C1C0 C1B1 B1C1 A0B0 B1B2 B2B1 B1B0 C1C0 C1C2 B1B0 B1B2 C0C1 C2B2 A2A1 B1C1 A1A0 B1C1 C1C0 B0B1 B1B0" />
    <trip id="2" depart="2.00" from="C0C1" to="B2C2" via="B2B1 C0B0 C0B0 A0A1 A1A0 A0A1 A0A1 B0B1 B1C1 A2B2 C1C0 B2B1 A1B1 B0A0 A0A1 B0C0 B2C2 B1A1 B0B1 A0B0 A0B0 B2C2 C2C1 B1C1 C0C1 B2A2 B0B1 C1C0 A2A1 B1C1 A2B2 A0B0 A0A1 C1C2 B2A2 B1B2 C1C0 C0C1 C1B1 B2C2 B2B1 C0B0 B2B1 C1B1 C2B2 C0C1 B1B0 C1B1 C1C0 C2C1 B1A1 B1B0 B2A2 B1C1 C2C1 B0C0 C0C1 A0B0 C2B2 B2A2 C1C0 A2A1 C2B2 B2B1" />
    <trip id="3" depart="3.00" from="A2B2" to="C0B0" via="A2A1 A1A0 C1B1 B0C0 B2A2 B1B0 B1B2 B2B1 B2C2 B1C1 B2B1 A2B2 B2B1 C1C2 B1B0 B0B1 C1C0 A1A2 A1A2 C0C1 A2B2 C0C1 C0C1 A0A1 C1C0 C2B2 B0A0 C1C2 B0B1 A0B0 B0B1 C2B2 C1B1 B2B1 A1B1 A2B2 A1B1 A1B1 C1C0 B0B1 B0A0 B1A1 B0A0 A2A1 B1C1 B1B2 A1B1 A1A0 A2B2 C0B0 B2A2 C2C1 B0B1 C1C0 C1B1 A2A1 C1C0 A1A0 B1C1 C2B2 B0B1 C1C0 C2C1 A1B1" />
    <trip id="4" depart="4.00" from="C1B1" to="B1A1" via="B2B1 B1C1 A1A0 C0B0 C2B2 C0C1 A0B0 B1B2 B2A2 A0B0 C0B0 B1A1 A1A0 C1C0 A1A2 A1B1 B0C0 B1B0 B2C2 A1A2 B2C2 C1B1 C1C2 A2B2 C1B1 B1A1 B0A0 C0B0 A2B2 C1C0 B0A0 B0A0 B1B0 C2B2 A1B1 B0A0 A1A2 A1A2 B2A2 B1B2 A1A0 B0B1 A0B0 A1A2 C1C2 A1A2 B2C2 B1B2 B0B1 A1A0 A1A0 A1A2 A1A2 C1C2 B1C1 B2B1 A0A1 C2C1 C0C1 C2C1 B2A2 A0B0 A1A0 B1C1" />
    <trip id="5" depart="5.00" from="C1C0" to="B0B1" via="B1A1 C2B2 A0B0 A0B0 A2B2 C0C1 B2A2 B1B0 A0A1 C0C1 C2C1 C2C1 A1A0 A1B1 C2C1 A1A0 B1B2 B0B1 B0B1 B2A2 A2A1 A1A0 B2A2 C1C2 B0C0 C2C1 C0C1 B0C0 C2B2 C0B0 B1B2 C1B1 B1C1 C2C1 C1C2 A2B2 B2B1 A1B1 A1A0 A1A0 C0B0 A1B1 C2C1 C2B2 B0C0 B0B1 A2B2 B1B0 A0A1 C2B2 B1C1 B0C0 B1C1 C1C0 B1B2 B2B1 C2C1 B2B1 A2A1 B0C0 B0B1 C0C1 C0B0 B0A0" />
    <trip id="6" depart="6.00" from="B0B1" to="B0A0" via="A0B0 C1C2 A1A2 B2C2 C1C2 A1B1 B2B1 A2B2 A2B2 B2A2 B2B1 C2B2 C1C2 B0C0 A1A2 A0A1 B1B2 C0C1 A0A1 C0C1 C0B0 B1A1 A1B1 B1B0 A0B0 C0B0 A1A0 B2A2 A1A0 C2C1 A1B1 B1B2 C0B0 B1A1 C1C2 B2B1 B2A2 C1C2 C2C1 B1B0 C2C1 B1C1 B0C0 A1A0 C1C0 A0A1 A0B0 B2A2 B1C1 A0B0 A1B1 C1C2 C2C1 B0B1 B2C2 A0A1 B0B1 B1A1 B1A1 C2B2 C0B0 B1B0 C1B1 A2A1" />
    <trip id="7" depart="7.00" from="C2B2" to="B1B2" via="B2C2 C1B1 B1B2 A0B0 A1A0 B1B0 B2A2 B2C2 B0A0 B1C1 B0C0 C2C1 A0A1 B0B1 A1A2 B0A0 C1B1 B2C2 A0A1 B0A0 C0B0 A1A0 B2A2 B2A2 A1A2 A1A0 B1C1 C1C0 C0B0 A0A1 A1A0 C1C0 A2A1 B1C1 A1A0 A1A0 B0B1 C1B1 A1A0 A2B2 C0B0 B2A2 A1A2 C1C0 C1C2 A1A2 A1B1 B0B1 C0B0 B1A1 C0B0 A2A1 B1B0 B1B0 A1B1 A1B1 A1A2 B0C0 B0B1 C1C0 A0A1 B0C0 B2B1 C1B1" />
    <trip id="8" depart="8.00" from="B0B1" to="B0B1" via="B1C1 B2A2 A1A2 B2A2 A1B1 C1B1 A0B0 B1C1 C1C2 A2A1 A1A2 B0A0 C1B1 B0B1 B1A1 C2B2 A2A1 B1A1 A0B0 C0B0 B1B0 A2B2 C2B2 B1C1 B0A0 B1C1 B0B1 C1C2 C0C1 C2B2 A2A1 A0B0 B0C0 B0B1 B1B0 B0C0 C1C2 A0B0 B0A0 B0C0 C1B1 A1A2 A0A1 B1A1 B1A1 B1A1 B0A0 A2B2 C0C1 B1B0 A2A1 C1B1 A1A0 A0A1 A0B0 B1B0 C1B1 C0B0 C1C0 C2C1 A2A1 B0C0 B1A1 B1B0" />
    <trip id="9" depart="9.00" from="C1B1" to="A2A1" via="B0B1 C1B1 C2B2 A1B1 B2B1 A1A2 C2B2 B1A1 B0B1 A2A1 A2B2 A1A2 B2A2 B1B0 A0A1 A2A1 A0A1 A2B2 B1A1 B1A1 B1B2 B2C2 A0A1 B0C0 B1B0 C1C2 B2A2 B1B2 C1B1 A0B0 A2A1 A0B0 B1A1 B1C1 B1A1 B0B1 B2A2 B2B1 A1A0 B2A2 B0B1 B2A2 A1A0 A2A1 B0A0 A2A1 A1A2 A1A0 B0C0 A1B1 B1C1 C0B0 A2B2 B2B1 C1B1 A1A2 A0A1 C0B0 B1C1 B1B2 C2B2 A0A1 A1B1 C1C0" />
    <trip id="10" depart="10.00" from="B1C1" to="B2C2" via="B1A1 A2B2 B2C2 C2B2 A1A0 B2C2 C1C0 B2B1 A0A1 B0A0 C1C0 B1B2 C0C1 B2A2 B1B2 A0A1 C0B0 A0A1 A1A2 A1B1 A1A0 A0B0 A0B0 C0B0 B0B1 C2C1 B1A1 C0C1 C1C0 A0A1 B1C1 C1C2 B0A0 C1C2 A0B0 B2B1 C1C2 C1C2 B2C2 B2A2 C0C1 B2B1 B2B1 A1B1 B2C2 A1B1 C0C1 A1A0 B0A0 A2A1 B1C1 C1B1 B0A0 A2A1 C1C0 C0C1 B1B2 B1A1 B1B0 A0B0 A0B0 B1B2 C0B0 B1B2" />
    <trip id="11" depart="11.00" from="C0B0" to="C1B1" via="B0A0 B1A1 B1B0 C1B1 B1B2 C2B2 B2A2 A0B0 B1C1 A2B2 C1C2 A2A1 C2B2 B1B0 A1A2 C1C2 B1B2 C1B1 B2C2 B1C1 A1A0 B1B2 C1B1 A2A1 C2B2 A0B0 B0C0 C2C1 B0C0 C0B0 A2B2 C1C0 A0A1 C2C1 B0B1 C1C0 B0B1 A1A0 B0A0 A1B1 C1C2 A0B0 A0A1 B2A2 B1B2 A0B0 C2C1 A0A1 B1B2 C0C1 C1C0 B0C0 B0A0 A2A1 C1B1 C1B1 C1C0 B1A1 C2B2 A1A2 B0A0 A1A0 A1A0 B2C2" />
    <trip id="12" depart="12.00" from="B2C2" to="A0A1" via="A2B2 C0B0 C0B0 C2C1 A0B0 B1A1 B2A2 B2A2 C2C1 C1B1 B1A1 C0C1 C1B1 B2A2 A1A2 A0A1 B1C1 C0B0 C1C0 C0C1 C2B2 C0B0 A2B2 A1B1 A0A1 C1B1 A0A1 A1A2 B1C1 C2B2 C1C0 B1B2 B1B2 B1B0 C1B1 B2B1 A1A0 A1B1 C0B0 C2B2 B1C1 B0C0 A2A1 C0C1 B0A0 B1B0 C1C0 A1A2 C2B2 A1A2 A1B1 C0B0 B0C0 A1A2 A2B2 B2C2 C1B1 B1C1 A1B1 B0B1 A2B2 B2C2 C0C1 A0B0" />
    <trip id="13" depart="13.00" from="A1A2" to="A1A2" via="B2A2 B1B2 C2C1 C1B1 C0C1 A1B1 A0B0 C2C1 B0A0 A2A1 A0B0 B2C2 B1A1 C0C1 B0C0 C1C2 C1B1 B0C0 A2A1 B1B0 B2B1 A1A0 A1B1 C1C2 A2B2 C1B1 B2C2 C1B1 C1B1 B0C0 B2C2 A1A0 C2B2 A0B0 B2C2 B1B0 A1B1 B1C1 A1A2 B1C1 B2B1 A2B2 B2A2 A1B1 C1B1 A1A0 C2B2 A2B2 B0C0 A0B0 C2B2 B1A1 B1C1 B0C0 B2A2 B1B2 C2B2 A0B0 A1A2 A1A0 B2A2 A1B1 A1A0 B2C2" />
    <trip id="14" depart="14.00" from="C1C0" to="B2C2" via="A2B2 A1A2 C1C2 A0B0 B0C0 B0C0 C1C2 B2C2 C0C1 B2A2 C2B2 A0A1 A1A0 C1B1 A0B0 A2A1 A2B2 A0B0 B1A1 B2B1 C1C2 A2B2 C1B1 C2C1 C2C1 A0A1 A1B1 B0B1 C2C1 C1B1 C1C0 B1C1 C1C2 A0B0 A1A0 A2A1 B2B1 A1B1 A2B2 B1C1 C2C1 B2C2 B1B2 A2B2 B0B1 C2B2 B1B2 A1B1 C0C1 A1B1 B0C0 C0C1 B0B1 C0C1 B2B1 A0A1 B0B1 A0A1 A1A2 B0B1 B1C1 B1B0 A1A2 A2B2" />
    <trip id="15" depart="15.00" from="C0B0" to="B1C1" via="C1C0 C2B2 C2B2 C1C2 B1A1 A2B2 C1B1 A0A1 A1A2 B2B1 C0B0 B1A1 B2B1 A1A2 B1B0 A0A1 A0A1 A1A0 B1B2 C2C1 C1C0 B0C0 A1B1 B2C2 C1C0 B1B2 A2B2 A2B2 B0C0 B1B0 C1B1 C2C1 A1B1 B2C2 C1C0 A1B1 C2C1 A1A0 C2C1 A0A1 A0A1 A1A0 C2C1 A1B1 C1C2 B2C2 C0B0 B0B1 C1C0 C1C0 B1C1 C0C1 A0A1 B1C1 B1B0 A2A1 B2B1 A2B2 B2B1 B1C1 B2C2 B2B1 A1A0 B1C1" />
    <trip id="16" depart="16.00" from="B0A0" to="C1B1" via="B0C0 B0A0 B1B0 A1A0 C2C1 C1B1 A1A0 C1C0 B2A2 B2A2 C1B1 B2C2 C1C2 B0B1 B2A2 A2A1 B0A0 A2A1 B2A2 A0B0 A1A2 C1C0 A1A2 B2B1 B2C2 B1A1 A1B1 A1A2 B0C0 B2C2 C0C1 B1C1 A1A0 A1A0 A1A2 C1C2 A0B0 A2B2 B0B1 B1C1 B2A2 A1A2 B1B0 B1B2 B1C1 A2A1 A0A1 C0C1 B1A1 A0B0 C0C1 B2A2 B1A1 B0C0 C1B1 C0C1 C1C0 B2B1 C2B2 B2A2 B0C0 C0C1 B1B0 B1B0" />
    <trip id="17" depart="17.00" from="A1A2" to="B2A2" via="A0B0 B1C1 B0B1 B2C2 C1B1 B1A1 C2B2 B1B0 B1B0 A0B0 C1B1 A2A1 A1A0 C1B1 C2B2 B1A1 A0B0 B1B0 A0A1 B0B1 A2A1 B1C1 A0B0 C0B0 B2B1 A0B0 B0C0 A0B0 A2B2 A0A1 B2A2 B0C0 A1A2 C1B1 B1C1 C2B2 A2A1 B1B2 C1C2 B0B1 A2B2 C0C1 A0B0 B2C2 B2B1 B0B1 B2B1 B1C1 B1C1 C2B2 C1C0 A2B2 A2B2 C0C1 C2B2 C1C2 B1B0 A1A0 B2A2 B2A2 B0A0 B2B1 A2A1 C0C1" />
    <trip id="18" depart="18.00" from="A1A0" to="B1B2" via="B2B1 A1A0 C1C2 A1A2 C1C0 B0B1 A0A1 C1C0 B0B1 A0A1 C0C1 A0B0 A1B1 C1C2 B2A2 B1B0 A2B2 A2B2 A0B0 C0C1 A2A1 B1C1 B2A2 A0B0 B0A0 C1B1 C0C1 B1A1 C0B0 A2A1 A1A2 A0B0 B1C1 B1C1 B1B2 A1B1 A2A1 B2A2 C1C0 C0C1 B1C1 B2A2 B1B2 A1A0 C1C0 C1B1 B1C1 C1B1 B1B2 A1B1 A2A1 A0B0 B1C1 A1A0 B0B1 C2B2 B2B1 B2A2 B0C0 A1A0 C0C1 C1C2 B0A0 B2C2" />
    <trip id="19" depart="19.00" from="A0B0" to="B1A1" via="A0B0 B2C2 A0B0 A2B2 B1B0 A1B1 B1B2 C2C1 A1A2 C1B1 C1C2 B1B0 B2C2 A0B0 A1A2 A1A0 B1B0 C2B2 B1C1 A1A2 C1B1 B0A0 A1A0 A2A1 B1A1 A0A1 B1C1 A2A1 C0B0 B1B0 C1B1 B2C2 B2A2 B2C2 B1C1 C1C0 B0A0 A0B0 C0C1 A2B2 B0B1 C1C2 B1B2 B1C1 A1A2 B2B1 C2C1 A2A1 A0B0 B1C1 B1A1 C1B1 C0B0 C0B0 B2B1 C2C1 B0C0 A2B2 A1A2 B1B2 B2B1 C2C1 B1B0 C1C0" />
    <trip id="20" depart="20.00" from="B1C1" to="A0B0" via="B2C2 A1A0 A2A1 C1C2 A0A1 B1B0 B2A2 A1A0 B0A0 C1C2 C2C1 C2C1 A0A1 C1B1 B0B1 B0B1 A2B2 C2C1 B1C1 A1B1 A0A1 A1A0 B2C2 B0C0 B2B1 A0A1 C1B1 A2A1 B0C0 B1A1 B0C0 C0B0 A2B2 B2B1 B2B1 B2A2 B1B0 C2B2 B0C0 C1C2 B2A2 B0A0 A1A2 A1A0 B2A2 C0C1 A0A1 B2B1 C1C2 A2A1 A2B2 B2A2 C0B0 B2C2 C1C2 C1C0 B2C2 C2B2 A0B0 C2B2 B2B1 A1B1 B2B1 B1C1" />
    <trip id="21" depart="21.00" from="B1B2" to="A0A1" via="A1A2 B0B1 A0A1 A2A1 C1C2 B1C1 B1C1 A1A2 B2A2 B2A2 C0B0 B2B1 B2A2 A2A1 A0A1 B1C1 A0B0 B0B1 B2C2 B0B1 A1A2 A2A1 B1C1 C2C1 A1B1 C2C1 A1A0 C2B2 C0C1 A2A1 C0B0 C1C2 A1A0 C1C0 C2B2 B1B2 B2A2 A1A0 A2B2 C1C2 B0A0 C2C1 C1C2 B0A0 B1C1 C0B0 C2C1 A1B1 B1C1 A1B1 B1B0 C1C2 B0A0 B2A2 C1C0 B1C1 B2B1 C1C0 B1A1 B1B2 B0A0 A1A0 C0B0 B2B1" />
    <trip id="22" depart="22.00" from="A0B0" to="B1A1" via="A1A0 B0A0 B2B1 C0C1 A1A2 A2A1 C0B0 A0A1 A2A1 B0A0 B1B0 B2B1 B1B0 A0B0 B1C1 B2C2 B0A0 A1A2 A1B1 C2B2 A1B1 A0A1 C2B2 B0C0 C0C1 B1C1 C0B0 B2A2 A2A1 A1B1 B1B0 A2B2 A0B0 B0A0 B2B1 B1B0 A0A1 B1B2 C1C0 A1B1 A1B1 C0B0 B2C2 A2A1 B2A2 B0A0 C2B2 B1C1 A2B2 A1A2 B2B1 C2B2 B1B2 C1B1 A1A2 A1B1 C0C1 A2B2 C1C0 C0C1 C0B0 B0C0 A1B1 B0B1" />
    <trip id="23" depart="23.00" from="B0C0" to="C0C1" via="C0B0 A2A1 C2C1 C2C1 B1B0 A1B1 B1C1 C2B2 C2B2 A2A1 B1A1 B2C2 A2B2 B1C1 A1B1 A1A2 C2B2 A0B0 C1C0 A0B0 A0A1 C1B1 B1B2 A1B1 C1C0 B1B2 C1C0 A1A2 C1C2 B1C1 B0A0 B1B0 B1B0 B2A2 A1A2 C2C1 B0B1 B2C2 C0B0 B0B1 C0B0 B2A2 A0A1 A2B2 B1A1 B1A1 A1A2 A0B0 A1A0 C2C1 A1B1 B1B0 A1A2 B1B2 B1B0 C1B1 B2B1 C1C2 B1C1 B2C2 A2B2 C1C2 C2C1 C1C2" />
    <trip id="24" depart="24.00" from="C0C1" to="A0A1" via="B2C2 B0C0 B1C1 C0B0 A0A1 B1B0 C2B2 A0A1 B0A0 B2B1 B0B1 C1C0 A2A1 C2C1 C2B2 A0A1 B1C1 C2B2 A0B0 B1C1 B1B0 A1B1 C0B0 A2A1 C1C0 B2C2 B1B2 A1B1 C2B2 A1B1 A0B0 A2B2 C1C2 A1A2 A0B0 C2B2 B1B2 B0C0 A0A1 B0B1 B2C2 A0B0 C1C2 B2A2 B2B1 B1C1 C2B2 C1C0 A1A2 C1B1 B2B1 B0C0 B0A0 A2A1 B1C1 A2B2 B0C0 A1A0 A1A2 A1A2 C0B0 C0C1 C1B1 A1A2" />
    <trip id="25" depart="25.00" from="A2A1" to="B1B0" via="B1A1 C2C1 B2B1 B0C0 A0A1 B0A0 C2C1 B1A1 B1B0 A0A1 A0A1 B0A0 C2B2 B1A1 A0A1 A0A1 B2B1 B2C2 C1C2 B2C2 A0A1 C0C1 A1A0 B1B2 A1A0 A2A1 B1B2 B0A0 C2B2 B1C1 B0B1 B2B1 B1B0 B1B0 B1A1 A0B0 B2A2 A0B0 A0A1 A2A1 B0C0 B1B0 B2C2 B2A2 C2C1 B2A2 C0B0 B0C0 A0A1 C1C0 B0A0 A2B2 A2A1 C0B0 B1B0 B0C0 C2C1 C2B2 C2B2 B1B2 A0B0 B0B1 A0B0 B0C0" />
    <trip id="26" depart="26.00" from="C1B1" to="A1B1" via="B1B0 C0C1 B1B2 C2B2 A1B1 C0B0 A1A0 C2B2 C0B0 B2B1 C0B0 A0B0 C0B0 B1C1 B1B2 B1B0 C2B2 A0A1 C0B0 B0C0 C2C1 A1A2 B0B1 C2C1 B0A0 A0A1 A0A1 C1B1 A0B0 C2C1 A0A1 C2B2 C1B1 A2B2 C0B0 C2C1 A1A2 C2C1 B0A0 B1B0 A1A0 A1B1 A1A2 B1A1 C1B1 A1B1 C2B2 C1C2 B1A1 A2A1 A1A0 C1C0 B0A0 B0C0 C2B2 A2A1 B1A1 C2C1 B2B1 B2A2 C2C1 C1C0 B2C2 C2C1" />
    <trip id="27" depart="27.00" from="B0B1" to="A1A0" via="C0C1 C0C1 B0B1 A0B0 C1C0 B1B2 C2C1 A2A1 A1A2 C1C0 A0A1 C0B0 C1B1 B1A1 B0B1 A1A0 C1C2 A1B1 A1B1 C2C1 C2B2 B0C0 C0B0 B2B1 A0B0 C2C1 B0C0 C0C1 C2B2 A1A0 B2C2 C2B2 C1B1 A2B2 B2C2 C2B2 B0A0 C2B2 A1B1 B0B1 A1A2 A2A1 C1C2 B1B0 C2C1 B2A2 B1C1 B2B1 B1C1 A2A1 A0B0 A0B0 B2A2 B1B2 C1C2 C0B0 A1B1 A1B1 B0C0 B0A0 C1C0 C1C2 A1A0 A0B0" />
    <trip id="28" depart="28.00" from="C2C1" to="B2C2" via="B1B2 A2B2 C0C1 B1A1 C1C2 B1A1 B1A1 B2A2 B0A0 B1A1 B2A2 C1C2 C0C1 B2C2 B2C2 B1A1 B2B1 A2A1 A2A1 A2A1 B1A1 B2A2 B0B1 A2B2 B0C0 B2B1 A0B0 A1B1 A1A0 C1C0 A1B1 C2B2 A0B0 A0B0 A2B2 C1C2 C0C1 B2B1 B0A0 B0A0 B2B1 A2B2 C1C2 C2B2 A1A0 B2A2 B1A1 B2B1 B2A2 C1C0 B0A0 B0B1 B1B2 C0C1 C0B0 B1B2 B1B2 C0C1 B1A1 A1B1 B1B0 B0B1 B0C0 A2A1" />
    <trip id="29" depart="29.00" from="A0A1" to="A1A0" via="A0A1 B2A2 C2B2 C0B0 C0B0 C1C2 C1C0 A0A1 C1C0 C0C1 B1B2 A1B1 B1B2 A1A2 A1A2 C0C1 C0C1 B1B2 B2A2 B0A0 A1A2 B0C0 A0A1 C2C1 C2B2 A0A1 B1B0 A2A1 B1B2 A1B1 C1B1 B1B0 B1C1 B0B1 B1C1 A2B2 B1B0 B0B1 C2C1 A1B1 C2B2 A1B1 B1B0 A0A1 C1B1 B1A1 C1B1 B0B1 A2B2 A2B2 A2A1 A1A2 B2C2 A1A2 B0C0 A0B0 A1A0 A2B2 C0B0 A0B0 C1C0 C1C0 A0B0 B1A1" />
    <trip id="30" depart="30.00" from="B1A1" to="A1A0" via="C0C1 B1B2 C1C2 B1A1 A0A1 A1B1 A1A2 C1B1 B0A0 C2B2 B0B1 C2B2 B1B2 A1B1 A2B2 B2A2 A0B0 B1A1 A2A1 B2C2 C0C1 C1C0 A2A1 A2B2 C1C2 C1C0 B1B2 A0B0 C1B1 B0B1 B2C2 C0C1 C1B1 A2B2 C2B2 A1B1 A1B1 B0B1 C0C1 A1A0 A0B0 B2A2 C2C1 C1C0 B1B2 C2C1 B0C0 A0A1 B2B1 C0B0 B2C2 B1B0 B0B1 A1A2 A1A0 C1B1 A0A1 B0C0 C1C2 B1B2 A0A1 C2B2 B1B2 B1B2" />
    <trip id="31" depart="31.00" from="A2A1" to="C1B1" via="A0A1 C2B2 C1C2 B0A0 A1A2 B1A1 A1B1 B0B1 B1C1 C1C0 A1A0 B2A2 A2A1 C2C1 A2B2 B2A2 B0B1 B2A2 C2C1 B1B2 C0C1 B1B2 A1A0 C1B1 B1B0 A2A1 B1C1 B0A0 C1C0 C1C0 A1A0 B2C2 C0B0 C2B2 C0B0 A0A1 B0A0 B0A0 B2B1 C0B0 A0B0 C1C2 A2A1 A2A1 B1B2 C0C1 A0B0 B1B0 A0A1 B2A2 B0A0 B2B1 B2C2 B1A1 C0C1 C1B1 C2B2 C0C1 B0A0 A2A1 A1A0 A2B2 C2C1 A1B1" />
    <trip id="32" depart="32.00" from="C2C1" to="A2B2" via="B2A2 C0B0 C1C0 B1B2 C1C0 C0B0 B0A0 B0C0 C1C0 B0C0 A0A1 B0C0 B0A0 B1B2 C1B1 A1A2 B1B0 A2A1 A1A0 C2C1 C2B2 A1A0 C2C1 A0B0 C1C2 B0C0 B2B1 B1B2 B2B1 B1A1 A1B1 C1B1 C1C2 A2B2 B0A0 B1A1 A1A0 B2B1 A0A1 C2B2 B1B2 C2B2 C2C1 B2C2 C2C1 C0B0 B1B0 A1A2 B0A0 A2A1 A1A0 B2A2 A1A0 C1C2 C2C1 B1B0 C1C0 A0A1 C0B0 A1B1 B0A0 B1B0 A1A0 C1C0" />
    <trip id="33" depart="33.00" from="A2B2" to="C0C1" via="B2A2 B0C0 B0C0 A2A1 A1A0 C1C2 A0A1 B1B0 C2B2 A1B1 C1C0 A1B1 C2B2 B0A0 C1C2 B1B0 A2B2 A0A1 C1B1 A1A0 C1C2 A2B2 A0A1 B0C0 B0A0 B1C1 A1B1 A1A0 B0C0 B0B1 A1A0 A1B1 C0B0 A2A1 C2C1 C2C1 B1B0 A1A0 B0A0 C0B0 B2C2 B2B1 A1A2 C1C2 A1A0 C1C2 B2C2 B0C0 B0C0 B0C0 B2C2 B1C1 B1B2 B1A1 A2B2 B0A0 C2B2 A1B1 B0C0 B2A2 B1C1 B2C2 C2B2 C1C2" />
    <trip id="34" depart="34.00" from="B2C2" to="B1C1" via="B2A2 B1B0 A1A2 B1A1 B0C0 C1C0 B0B1 B0C0 A1A2 B1B0 C1B1 A2A1 C0C1 A0B0 B1B0 B2B1 A0B0 C2B2 B1C1 B2A2 A2B2 B2C2 C1C0 A1A2 B2A2 C1C2 C2B2 B2A2 C1C0 B2C2 B2B1 B1C1 C0C1 A2A1 A0A1 B0B1 B0B1 B1B2 C0C1 B2A2 A1A2 C0C1 A0A1 A0B0 C2B2 B2C2 B1B0 C1C0 B2C2 C1C2 A0A1 A1A0 A1A0 B2C2 B0B1 C2C1 A1B1 A1A2 B2A2 C2B2 A2A1 A0A1 A1A0 A0B0" />
    <trip id="35" depart="35.00" from="A1A0" to="B0C0" via="A1A2 B1C1 A1A2 A2B2 A2A1 A1A0 C2C1 B1A1 B0B1 B1B0 B0A0 C1B1 B2A2 B1B0 B0A0 C2C1 C1C0 B1A1 A1A0 B1A1 B1B2 B2B1 B1A1 B1B2 B0A0 C0B0 A2B2 A0B0 B0A0 B0B1 B2A2 C2B2 A1A0 A1A2 A1B1 A0A1 B1B2 B0B1 B0B1 C1B1 B1B0 C0B0 C1B1 C2B2 B2C2 B0C0 C0C1 A1A0 B0B1 B1B0 B2A2 C1C0 C1C0 C1C0 A2B2 B2A2 B0B1 B0A0 A0A1 A1B1 A1B1 A0A1 B1A1 B0B1" />
    <trip id="36" depart="36.00" from="B2A2" to="A0A1" via="C2B2 B2C2 C1C0 C2B2 C1B1 A0B0 C1C0 A0A1 C2B2 A1B1 A0A1 A0A1 B0C0 A2A1 B0B1 A1B1 C1B1 A1B1 A2A1 A0A1 A1A0 C1B1 B1C1 B1B0 A0A1 C1C2 A1B1 A1A0 B2A2 C2B2 C1C2 B0C0 C2C1 B2B1 B1B0 C1C0 B0B1 B0C0 B1B2 A0B0 A0B0 B0A0 C1C0 C1C2 A0B0 A0B0 A1B1 C2B2 B2C2 B2B1 B1B0 A1A2 A0B0 C1B1 C0B0 B1B0 C1C0 B0C0 C2B2 B0C0 A2A1 B0B1 B2B1 B1C1" />
    <trip id="37" depart="37.00" from="C2B2" to="A0A1" via="B1C1 A0A1 A1B1 A0B0 A1A2 B1C1 B2B1 A1A0 A1A2 C2B2 A1B1 A0A1 B1C1 B2C2 C2B2 B2A2 B1B0 A1B1 B1B2 C1C0 A0B0 C0B0 A1B1 B0C0 B1C1 A1B1 A2B2 A1B1 C1C2 B2C2 B2A2 A2A1 B0C0 B2C2 A2B2 B0A0 A2B2 C2C1 C0B0 B0B1 C2C1 B1B0 A1A2 A1A0 A2A1 A2A1 B1A1 A0B0 B1B0 B0A0 A1B1 C0B0 C1B1 B2B1 A1A2 C0C1 A0A1 B0A0 B1C1 B1A1 A0B0 B2B1 B1A1 C1C0" />
    <trip id="38" depart="38.00" from="B0A0" to="A1A0" via="C2B2 A2A1 B1B2 A1A2 B2B1 B1B2 A0B0 A0B0 C0B0 B1B0 C2C1 A2B2 C1C0 B0A0 B0A0 B2B1 C1C0 B1A1 B1B2 B0A0 A1A2 B1B2 B0C0 A0A1 C1C2 B0B1 A1A2 A0B0 B2B1 A0B0 B2C2 A2A1 A1B1 B0A0 B1B0 C1C2 C1B1 B0B1 C0B0 A0A1 C0C1 B1C1 A1A0 C2B2 A0B0 C1B1 B1B0 B1A1 B2B1 B0C0 B1B2 B0C0 C2C1 B1B2 A0B0 C1C0 A0A1 B2B1 C0B0 B2C2 B2C2 B2B1 C1B1 B1C1" />
    <trip id="39" depart="39.00" from="B2A2" to="C0C1" via="B2C2 C2B2 B2B1 C2B2 C1B1 B1B0 C1C0 B1A1 B1B0 B1B2 B2A2 B1C1 B1A1 A0B0 C0C1 A1A2 C2C1 B1B0 C0C1 C0C1 B1B2 B1B2 A1B1 C1C2 B1A1 A2B2 B1B2 B0C0 C2C1 C0C1 C1B1 A1A0 B0A0 C0C1 C2C1 B2A2 A2A1 C2C1 C2C1 C1C2 C1C0 A1A0 C1C2 C0B0 A0A1 C2B2 B2A2 C2C1 B0C0 C0B0 B0B1 B0B1 B0A0 C0C1 B2B1 A2A1 B2C2 A1A2 B1B0 C1C2 B1B0 B1B2 A1A0 C2B2" />
    <trip id="40" depart="40.00" from="A2A1" to="B0B1" via="B0B1 B0C0 C0C1 C1B1 C0C1 A2B2 C2B2 C1C0 B0A0 B1C1 C1B1 C1C0 C2B2 A1A2 A0A1 B1B0 C0B0 B0C0 B1B0 B1B0 B1C1 C1C2 A2A1 A2B2 A2B2 C2B2 B0A0 B0B1 A1A2 C2B2 A0B0 C2B2 B2C2 C1C0 A2A1 A2A1 C2C1 B1B0 C0C1 B0C0 B2A2 B0C0 A0B0 A1A2 B2C2 B1C1 C1C0 A2B2 A1A0 A1A0 C2C1 A1A0 C1C2 A1B1 A1A2 C1C0 C1C0 A2B2 B2C2 A1A2 B0A0 C2C1 B1A1 A0A1" />
    <trip id="41" depart="41.00" from="B2B1" to="B1B2" via="B1A1 B1C1 A1A0 C1C2 C2C1 C0B0 B2A2 A0A1 B1C1 B0B1 B0A0 A2B2 C2B2 A0A1 A1A0 C1C0 B0A0 A1A2 C2B2 C0B0 B1B2 B0A0 B1B0 A2A1 A0A1 C0C1 A1A2 B1A1 A2A1 C1C2 A1B1 A1B1 B1B2 B2A2 C2C1 A0A1 C2B2 B2C2 C1C2 B2C2 B1A1 A2B2 C2C1 A2B2 B0B1 A0A1 C0C1 B0C0 C2C1 A1B1 C2C1 A0B0 A1A0 A2A1 B1C1 C1B1 A1A2 A1A0 C0B0 C1C2 C0C1 C2C1 B0C0 A1B1" />
    <trip id="42" depart="42.00" from="C2B2" to="A1A2" via="B2A2 B0B1 C0C1 B1A1 B0A0 C0C1 C0B0 C1B1 A2B2 A0A1 A0A1 C0B0 B1C1 C1B1 B2A2 B0C0 C1C2 C0B0 C1C0 C1C2 C1B1 A0B0 A0A1 C2B2 A0A1 B0A0 B1B0 A1A0 A2A1 C1B1 B0B1 A0B0 B2B1 B0B1 B1A1 A1A2 B0C0 C1C2 C2B2 A2A1 C1C2 A0B0 B2B1 C1B1 A2A1 B1B2 B1C1 A2B2 C1C0 C1C2 C1B1 B2C2 B1B2 A1A2 A1A2 C1C2 B1A1 C1C0 A1A2 A2B2 C1C0 B0A0 A2B2 C1C0" />
    <trip id="43" depart="43.00" from="A0A1" to="C1C0" via="A1A2 B0A0 B1A1 A1B1 C0B0 B2B1 C2B2 C0C1 A0A1 C1C2 B1A1 C1C2 B1A1 A1B1 A1B1 B0B1 A1B1 B0C0 B1B2 A0B0 B2C2 B1B2 A2B2 C1C0 C2B2 C1C0 A2A1 A2B2 C0B0 B2C2 B0C0 B2B1 C1B1 A1A2 A1B1 A0B0 C1B1 C1B1 A1A0 B1C1 B2C2 A0B0 A1B1 A2B2 B2A2 C2C1 A0A1 C1C0 C2B2 C2B2 A1B1 B0A0 A2A1 B2C2 B0C0 A2B2 C1C0 B2B1 C1C2 C1B1 B1B2 C1C0 C2B2 B0B1" />
    <trip id="44" depart="44.00" from="A1A2" to="B0B1" via="B2A2 C0C1 B0A0 B0C0 B2A2 C0B0 B1C1 B2B1 B2A2 B1C1 A1A2 C2B2 A1B1 B1C1 B1A1 B1A1 B0C0 C2C1 A0A1 B1A1 B0C0 B2A2 A1B1 C1C0 B0C0 B1B2 C2C1 C1C2 B0B1 B2B1 B1A1 C0B0 C1B1 C1B1 A1A0 A1B1 C1C0 A0B0 B2B1 C0B0 B0A0 B0A0 B1B0 A1B1 A0A1 C2C1 C1C0 B0A0 B1B2 B1C1 B0C0 C1C2 B1B2 B2B1 C0C1 B0A0 C0B0 B2A2 A1A0 A0A1 C2C1 B2A2 B2C2 C2B2" />
    <trip id="45" depart="45.00" from="C2B2" to="A2A1" via="B0B1 C2C1 A2A1 B2A2 C1B1 A2A1 A2B2 A1A0 B1B2 A1A0 A2B2 B1B2 B1B0 C2B2 C0C1 A0B0 C1B1 C1B1 B1B2 A2A1 B0A0 C2B2 C1C0 A1B1 B1B2 B0B1 A2A1 B1A1 B0B1 B1C1 B1A1 A1A0 A0B0 A2A1 C2C1 A1A2 B2C2 B1A1 C0B0 A2A1 C1B1 B0A0 C1C0 B0B1 C2C1 B1C1 B1A1 A1A2 B2C2 B2B1 B1A1 C2C1 A1A2 A1A0 A2B2 A2A1 C1C0 B1B0 A1A2 C0C1 B0C0 C1C0 B2A2 C1C0" />
    <trip id="46" depart="46.00" from="C2B2" to="A1B1" via="A1A2 B1C1 C1C0 B2B1 B2C2 B0A0 A0A1 A2B2 A1A2 A1A0 A2A1 B1B0 B1A1 B0A0 B0C0 A1B1 B2B1 C1C0 B1C1 A0B0 A1A0 A2A1 B2C2 B1B0 B1B2 C2C1 A2A1 A1B1 A1A0 A0B0 A1A0 B0C0 C2C1 B0C0 A2B2 B0B1 B2C2 A1B1 C0C1 C1B1 A1B1 C1C0 C0B0 B2B1 A0A1 A1A0 C0C1 B1C1 B1B0 A0B0 B1C1 B1A1 C1C2 B1A1 A1A0 B1A1 A0B0 A1A0 C0B0 B0A0 B1B0 C0C1 A0B0 B1B2" />
    <trip id="47" depart="47.00" from="A1A0" to="B1C1" via="B1A1 B0C0 C2B2 B1A1 A1A2 B1B2 B2B1 A1A0 A1B1 B2C2 B0A0 B2A2 B2C2 B0C0 B2A2 B1B0 A2B2 A0B0 B1B2 B1C1 A1B1 C2C1 A1A0 B1B0 B1A1 B2B1 A0A1 C1C2 A1B1 C2C1 A0B0 B0C0 B0C0 C1C0 B2C2 B2A2 A1B1 B2C2 B0A0 C1B1 B1B2 B2B1 B0C0 A2A1 B2C2 C2C1 B1A1 A0B0 B1B0 C1C2 B2A2 C2B2 B2B1 A1B1 B2C2 B1B2 A2B2 A1A2 C1C2 B2C2 C1C0 A2B2 B2B1 A1A0" />
    <trip id="48" depart="48.00" from="B2B1" to="B1B2" via="C1B1 C2C1 A1B1 B1C1 B0B1 B2B1 B1C1 A1A2 B0C0 C2C1 B1C1 B0C0 C0C1 C0C1 C2B2 C0C1 C0C1 A2B2 A1A0 B1C1 C0C1 A1A0 B2B1 B0A0 A1B1 A1B1 B2B1 B2B1 C2B2 A2A1 A0B0 B0B1 C1B1 B0C0 A1A0 C1B1 A1B1 C2C1 B2A2 C0B0 A1A2 B1C1 B0A0 A0A1 B0A0 C0B0 B1A1 A1B1 B1B2 C0B0 B1B2 A0B0 C1B1 A0B0 C2B2 C1C2 C1B1 A2A1 A2B2 C1C2 B1B0 B0B1 B2A2 B1A1" />
    <trip id="49" depart="49.00" from="A1A0" to="A1A2" via="B1B0 C0B0 B1B2 B2C2 A2A1 B1C1 A1B1 A0B0 C2C1 B1B2 B2C2 A1A2 B2C2 A1A0 C0C1 B0C0 B1C1 A0A1 A1B1 B1B2 B1A1 A2B2 A2B2 A2B2 B1C1 B1A1 A1A0 A2B2 B1C1 C0B0 A2A1 A2A1 A2B2 A2A1 A1A0 A2B2 A2B2 A1B1 A1A0 C1B1 B1A1 C1B1 C2C1 A0B0 C1C2 C1C0 B2A2 A1B1 C2B2 C1C2 B1A1 C2C1 C0C1 B1C1 C0C1 B2B1 A1A0 B1B0 A0A1 A0B0 A2B2 A2B2 B1A1 B1B0" />
    <trip id="50" depart="50.00" from="A2A1" to="B0B1" via="B2C2 B1A1 A0A1 B1B2 A2B2 A0B0 B1A1 A1B1 B0C0 B1B2 B0A0 A2A1 C0B0 A2B2 A2A1 C0C1 C2C1 A0A1 B2B1 A0A1 A2A1 B0A0 B0C0 C0B0 C1C0 C2B2 B2A2 A0A1 C0C1 A1B1 B1C1 A2B2 C1B1 A0B0 C1B1 A0B0 B2A2 B2A2 C1B1 A0A1 B2A2 B2B1 A1A0 A0A1 B0B1 C0B0 A1A0 B0C0 A1A0 B0B1 A1A0 B2C2 C2C1 C0B0 C1C2 B1C1 B2C2 C1B1 B1A1 B2B1 C1C2 B2B1 B1C1 B2A2" />
    <trip id="51" depart="51.00" from="A0B0" to="A0B0" via="C0C1 B2C2 B0A0 B2C2 A0A1 A0A1 B1B0 A1A0 B0B1 B1B0 B2B1 C1B1 A1B1 C2B2 B0C0 C2B2 C1B1 A0A1 B1A1 B0B1 B0B1 A2B2 B1A1 A0A1 C2B2 C1B1 A2A1 C0C1 B0C0 A2B2 A0A1 C0B0 C1B1 A1B1 C0C1 A1A2 B0B1 C0C1 B1A1 C0B0 B2B1 B1B0 C2B2 B1C1 A2B2 B1B2 C0C1 C0C1 B1B2 C0B0 B0A0 B1B0 C1B1 C2C1 B2A2 C1B1 A1A2 C2C1 B1C1 C1C0 A1A0 A2B2 C0C1 C1C2" />
    <trip id="52" depart="52.00" from="B0C0" to="B1B2" via="A0A1 C1B1 B0A0 B0C0 B0A0 B0C0 B2B1 A0B0 B2A2 B2C2 A0B0 A2B2 A1A0 C2C1 B2A2 A2B2 C2B2 C2C1 B1B0 A2B2 B1A1 C1C0 A2A1 A0B0 A0B0 C1B1 B0A0 A0A1 B0A0 C0B0 C2B2 C2B2 A1A0 C2C1 B1A1 B0C0 A0B0 C0C1 B0B1 C1C0 B0B1 C0C1 C1B1 C1C0 C0B0 B1C1 A0A1 B0C0 B2B1 C1B1 B2C2 A1B1 B1B2 B1B0 A1A2 B0A0 B1C1 B1C1 B2B1 C1C0 B2C2 B2A2 B1C1 B0A0" />
    <trip id="53" depart="53.00" from="B1C1" to="B2B1" via="A1A0 B0B1 A2A1 B2B1 C0B0 C1C0 B0B1 B2A2 B2B1 A1A2 C1C0 A1A2 C1C0 A1B1 A2B2 C2C1 C0C1 C0B0 B2A2 B1B0 B0A0 A0A1 A1A2 C1B1 A2A1 A2A1 B2B1 A1A0 C2B2 B0A0 A1A2 C1C2 B1C1 A2A1 A2A1 B1B0 A0A1 B2B1 B0A0 A2A1 C0B0 B2A2 A1A0 A1B1 B0A0 B0B1 B2B1 C2C1 A1B1 B0A0 C0C1 B0C0 A0A1 B2C2 A1A2 B0A0 C1C2 C1C0 C1B1 A1B1 C1C0 C1B1 B2A2 B0B1" />
    <trip id="54" depart="54.00" from="A0B0" to="C1B1" via="A1A2 B2B1 B0A0 B0B1 A2A1 A2B2 B1B0 B2B1 C1C0 B2C2 A1A0 C1C2 B1A1 A2A1 A1A0 C1C0 A0A1 C0C1 B1A1 B0B1 B0C0 C0C1 C0B0 B2A2 A1A2 B0C0 B2B1 C2B2 B2A2 B1A1 A0B0 A0A1 A2B2 B0C0 B1B2 C1B1 A1A0 C0B0 B1B0 B1B0 C1C0 C0C1 B2B1 B0A0 C1C0 A1A0 A0B0 A1A2 B2B1 C1C2 B1B0 A0A1 A2B2 A0B0 B2B1 C2C1 A0A1 B1C1 C2B2 B0C0 B2B1 C1B1 C2C1 C2B2" />
    <trip id="55" depart="55.00" from="C0C1" to="C0C1" via="B1A1 C2C1 B0A0 A0B0 B0A0 A0A1 B0C0 B2B1 A1A0 B1A1 B0C0 A0A1 C1C0 C1C0 B0C0 A1A0 A0A1 B1A1 B1B0 C2C1 C2B2 C0B0 A1A0 A0B0 C0B0 B2A2 A1A2 B2A2 A2A1 B1B2 A0B0 B2A2 C1C0 A2B2 A1A2 A2B2 A1A2 B2A2 A1A2 A1A0 B1B2 B0C0 B2B1 B2A2 C0C1 B1C1 B2B1 C2B2 A1B1 A2B2 A0B0 B1B0 B1C1 A1B1 B0A0 B0C0 C2B2 A2A1 B2A2 C1B1 B1C1 C2B2 B1B2 B2A2" />
    <trip id="56" depart="56.00" from="C2B2" to="C1C0" via="B1A1 C2C1 A0A1 C1B1 C1C2 B1C1 C1B1 B1A1 B1B0 A2A1 B0A0 B1C1 B2B1 B1B2 C0B0 A1A0 C0C1 C0B0 A0A1 A1B1 C1C0 A2B2 A0B0 C2B2 C0B0 B2A2 C0C1 B1B0 A0B0 B1B2 A0A1 C0B0 B1B2 B2C2 C2C1 C1C2 A2A1 B0C0 C0B0 C2B2 A1B1 B0C0 C1B1 A2B2 C1C2 B0A0 A2A1 B1C1 B2C2 B1A1 B0C0 B2B1 B0A0 C1C0 B2A2 A2A1 A0A1 C2B2 A1A2 A1B1 C1C0 A0A1 A1B1 B0B1" />
    <trip id="57" depart="57.00" from="B1B2" to="A1B1" via="A2A1 B1A1 B1B2 B2B1 B0B1 B1B0 B1C1 A2B2 B1B0 A1A2 B0B1 A2A1 B0B1 B2B1 C2B2 B0A0 C1B1 B0A0 B1C1 A1A2 A1B1 B1B0 A0A1 A1B1 C1B1 C1C0 C1C0 B2B1 B1A1 C1C0 C1C2 A2B2 A0A1 B2B1 B0A0 B1B0 A1A2 B2B1 B2B1 A1A0 B1C1 A2B2 A2B2 C2C1 C2B2 A1A0 B1B2 B2B1 B0B1 C1C2 B0B1 C2B2 B1B2 C1C2 C1C0 A2B2 A1A0 B2C2 B0A0 C2C1 C2B2 B0A0 A0A1 A2B2" />
    <trip id="58" depart="58.00" from="B2C2" to="B0C0" via="A2A1 C0B0 B1B2 A2B2 A0B0 B0B1 C0B0 A2A1 B0A0 B0B1 A2B2 A2A1 A0B0 B1A1 C2B2 B2C2 A0A1 C0C1 C2C1 B1B2 A1B1 C2B2 C2B2 B2B1 A1B1 A0A1 B0A0 A1A0 A1B1 B2C2 A1B1 B2B1 C0B0 C0C1 B2C2 C1C0 B0B1 B2A2 C1C2 B0A0 B1B0 A2B2 C1C0 B0C0 C2B2 C1C0 A1A0 B0A0 A0A1 B1B2 C1C2 B2C2 B2C2 B1B2 B0B1 B1A1 A1A0 C1C0 B0C0 B1C1 C1C2 C2B2 B1C1 B2B1" />
    <trip id="59" depart="59.00" from="A1A2" to="C0B0" via="C0C1 B0C0 A0B0 B2A2 A1B1 B2A2 B1B0 A0A1 B1A1 A2B2 B1B2 C1C0 A1A2 C2B2 B1B2 B2A2 C1C2 C2C1 B1B0 A1A0 B0A0 C0B0 A1B1 C2B2 B0C0 B0A0 A0B0 B1C1 B2B1 A2B2 B0C0 B2C2 C1B1 A1A0 B1A1 C1C0 C0B0 C0C1 A1A0 C0B0 B2A2 C1C2 B1C1 B0A0 A0B0 B2B1 B1A1 C0C1 B2A2 C1C2 A1A2 B1B2 C2B2 B2A2 B1B0 B2A2 A0B0 A2B2 B1B0 A0A1 B2C2 C2B2 A1A2 A1A0" />
</routes>
