<?xml version="1.0" encoding="UTF-8"?>

<!-- generated on Tue Jan 24 21:25:26 2023 by Eclipse SUMO duarouter Version 1.8.0
<configuration xmlns:xsi="http://www.w3.org/2001/XMLSchema-instance" xsi:noNamespaceSchemaLocation="http://sumo.dlr.de/xsd/duarouterConfiguration.xsd">

    <input>
        <net-file value="drones.net.xml"/>
        <route-files value="drones.trips.xml"/>
    </input>

    <output>
        <output-file value="drones.rou.xml"/>
        <alternatives-output value="drones.rou.alt.xml"/>
    </output>

</configuration>
-->

<routes xmlns:xsi="http://www.w3.org/2001/XMLSchema-instance" xsi:noNamespaceSchemaLocation="http://sumo.dlr.de/xsd/routes_file.xsd">
    <vehicle id="0" depart="0.00">
        <route edges="D5D4 D4D3 D3D2 D2D1 D1C1 C1B1 B1A1 A1A0 A0B0 B0A0 A0A1 A1A2 A2B2 B2B1 B1B0 B0C0 C0D0 D0E0 E0F0 F0G0 G0G1 G1G2 G2F2 F2F1 F1E1 E1E2 E2E3 E3E4 E4E5 E5F5 F5G5 G5F5 F5E5 E5D5 D5C5 C5B5 B5B6 B6C6 C6D6 D6D5 D5D4 D4D3 D3D2 D2D1 D1D0 D0C0 C0C1 C1C2 C2C3 C3C4 C4C5 C5C6 C6D6 D6E6 E6F6 F6G6 G6G5 G5G4 G4F4 F4E4 E4F4 F4F3 F3F2 F2E2 E2D2 D2E2 E2D2 D2C2 C2B2 B2A2 A2A1 A1A0 A0B0 B0C0 C0D0 D0E0 E0E1 E1E2 E2F2 F2F1 F1F0 F0E0 E0E1 E1E2 E2E3 E3D3 D3C3 C3C2 C2C3 C3C4 C4C5 C5D5 D5E5 E5F5 F5G5 G5G6 G6F6 F6G6 G6G5 G5G4 G4G3 G3G2 G2G1 G1F1 F1E1 E1D1 D1C1 C1B1 B1B2 B2B3 B3B4 B4B5 B5B6 B6A6 A6A5 A5A6 A6B6 B6C6 C6D6 D6E6 E6F6 F6G6 G6G5 G5G4 G4G3 G3G4 G4F4 F4E4 E4D4 D4C4 C4C3 C3C2 C2B2 B2C2 C2D2 D2E2 E2F2 F2G2 G2G1 G1G0 G0F0 F0E0 E0D0 D0C0 C0B0 B0A0 A0A1 A1A2 A2B2 B2A2 A2B2 B2C2 C2D2 D2E2 E2F2 F2F1 F1F0 F0E0 E0E1 E1E2 E2E3 E3F3 F3G3 G3F3 F3E3 E3E4 E4E3 E3E4 E4E5 E5F5 F5G5 G5G4 G4G3 G3G2 G2F2 F2E2 E2F2 F2F1 F1E1 E1D1 D1C1 C1C2 C2C3 C3C4 C4C5 C5D5 D5C5 C5C4 C4C3 C3C2 C2C1 C1C0 C0C1 C1C2 C2C3 C3C4 C4D4 D4E4 E4D4 D4E4 E4F4 F4G4 G4G3 G3G2 G2G1 G1F1 F1F2 F2F3 F3F4 F4F5 F5G5 G5F5 F5F4 F4F3 F3F2 F2F1 F1E1 E1D1 D1E1 E1F1 F1G1 G1G2 G2G3 G3G4 G4G5 G5G6 G6F6 F6E6 E6E5 E5E4 E4E3 E3E4 E4E3 E3E2 E2E1 E1E0 E0D0 D0C0 C0B0 B0A0 A0A1 A1A0 A0B0 B0C0 C0D0 D0E0 E0D0 D0C0 C0B0 B0B1 B1B2 B2B3 B3B4 B4C4 C4C3 C3C2 C2C1 C1C0 C0D0 D0E0 E0E1 E1E2 E2E3 E3E4 E4E5 E5E6 E6D6 D6E6 E6F6 F6G6 G6G5 G5G4 G4G3 G3G2 G2G1 G1F1 F1E1 E1D1 D1D2 D2D3 D3D4 D4D5 D5E5 E5D5 D5D4 D4D3 D3D2 D2D1 D1C1 C1B1 B1A1 A1B1 B1B0 B0C0 C0D0 D0E0 E0F0 F0E0 E0D0 D0C0 C0B0 B0B1 B1C1 C1C2 C2C3 C3C4 C4C5 C5C6 C6D6 D6E6 E6E5 E5E4 E4E3 E3E2 E2D2 D2C2 C2C1 C1C0 C0D0 D0E0 E0F0 F0G0 G0G1 G1G2 G2G1 G1F1 F1E1 E1E2 E2E3 E3E4 E4D4 D4D3 D3D2 D2D1 D1C1 C1B1 B1A1 A1A2 A2A3 A3A4 A4A5 A5A6 A6B6 B6C6 C6C5 C5C4 C4C3 C3C2 C2C1 C1B1 B1B2 B2B3 B3B4 B4B5 B5B6 B6B5 B5B4 B4B3 B3B2 B2C2 C2D2 D2E2"/>
    </vehicle>
    <vehicle id="1" depart="1.00">
        <route edges="B2C2 C2C3 C3D3 D3E3 E3F3 F3F2 F2F1 F1E1 E1D1 D1C1 C1B1 B1A1 A1B1 B1C1 C1B1 B1B2 B2B3 B3C3 C3C2 C2B2 B2A2 A2A3 A3A2 A2A1 A1A2 A2A3 A3A4 A4A5 A5B5 B5C5 C5D5 D5E5 E5D5 D5D6 D6C6 C6B6 B6A6 A6A5 A5A4 A4A3 A3A2 A2A1 A1B1 B1C1 C1D1 D1E1 E1F1 F1F2 F2F1 F1G1 G1F1 F1F2 F2F3 F3F2 F2F3 F3G3 G3G4 G4G5 G5F5 F5E5 E5D5 D5C5 C5D5 D5D6 D6E6 E6F6 F6F5 F5F4 F4F3 F3F2 F2F1 F1F0 F0E0 E0D0 D0C0 C0B0 B0B1 B1B2 B2B3 B3B4 B4B3 B3B2 B2B1 B1B0 B0B1 B1B2 B2B3 B3B4 B4C4 C4D4 D4D3 D3D2 D2D1 D1D0 D0E0 E0F0 F0G0 G0G1 G1G2 G2G3 G3F3 F3E3 E3E4 E4F4 F4G4 G4G3 G3G2 G2G1 G1G0 G0F0 F0E0 E0D0 D0D1 D1D2 D2D3 D3D4 D4D5 D5E5 E5E4 E4E3 E3E2 E2D2 D2D3 D3D4 D4D5 D5D4 D4D3 D3D2 D2D1 D1D2 D2E2 E2E1 E1F1 F1F2 F2F3 F3F4 F4F5 F5G5 G5G4 G4F4 F4E4 E4D4 D4C4 C4D4 D4D3 D3D2 D2D1 D1D2 D2D3 D3D4 D4E4 E4F4 F4G4 G4F4 F4E4 E4D4 D4C4 C4C3 C3C2 C2B2 B2B3 B3B4 B4B5 B5C5 C5D5 D5E5 E5F5 F5F4 F4E4 E4D4 D4C4 C4B4 B4A4 A4B4 B4B3 B3A3 A3B3 B3B4 B4C4 C4D4 D4E4 E4D4 D4E4 E4F4 F4G4 G4G3 G3G2 G2G1 G1G0 G0F0 F0E0 E0D0 D0C0 C0B0 B0B1 B1B2 B2B3 B3B4 B4B5 B5A5 A5B5 B5C5 C5D5 D5E5 E5F5 F5F4 F4F3 F3F2 F2F1 F1F0 F0F1 F1F2 F2F3 F3F4 F4F5 F5G5 G5G4 G4F4 F4E4 E4D4 D4C4 C4B4 B4A4 A4A5 A5A4 A4A3 A3B3 B3C3 C3C2 C2C3 C3C4 C4B4 B4B3 B3B2 B2B1 B1B0 B0B1 B1B2 B2B3 B3C3 C3D3 D3E3 E3F3 F3F2 F2F1 F1E1 E1D1 D1E1 E1F1 F1G1 G1G2 G2G3 G3F3 F3E3 E3D3 D3C3 C3B3 B3A3 A3A4 A4B4 B4C4 C4C3 C3C2 C2C1 C1C0 C0C1 C1C2 C2C3 C3D3 D3E3 E3E4 E4E5 E5E6 E6F6 F6G6 G6G5 G5G4 G4G3 G3G2 G2G1 G1G0 G0F0 F0E0 E0D0 D0C0 C0C1 C1C2 C2C3 C3D3 D3E3 E3F3 F3G3 G3G4 G4G5 G5G4 G4F4 F4F5 F5F4 F4F3 F3F2 F2E2 E2D2 D2C2 C2B2 B2B1 B1B2 B2B3 B3B4 B4C4 C4D4 D4E4 E4F4 F4F5 F5F6 F6G6 G6G5 G5G4 G4G3 G3G2 G2G1 G1F1 F1E1 E1D1 D1E1 E1E2 E2E3 E3E4 E4E5 E5F5 F5G5 G5F5 F5E5 E5D5 D5C5 C5C4 C4C3 C3B3 B3B4 B4B5 B5C5 C5B5 B5C5 C5C4 C4C3 C3C2 C2C3"/>
    </vehicle>
    <vehicle id="2" depart="2.00">
        <route edges="F4E4 E4D4 D4C4 C4B4 B4A4 A4A5 A5A6 A6B6 B6C6 C6D6 D6E6 E6F6 F6G6 G6G5 G5G4 G4G3 G3G2 G2G1 G1G0 G0F0 F0E0 E0D0 D0C0 C0B0 B0A0 A0A1 A1A2 A2A3 A3A4 A4A5 A5A6 A6B6 B6C6 C6D6 D6E6 E6F6 F6G6 G6G5 G5G4 G4G3 G3F3 F3E3 E3D3 D3C3 C3C4 C4C5 C5D5 D5E5 E5F5 F5G5 G5G6 G6F6 F6E6 E6D6 D6D5 D5D4 D4D3 D3D2 D2D1 D1D0 D0C0 C0C1 C1C2 C2C3 C3D3 D3E3 E3E2 E2E3 E3E4 E4E5 E5F5 F5G5 G5G4 G4G3 G3G2 G2G1 G1F1 F1E1 E1D1 D1C1 C1C0 C0B0 B0B1 B1B2 B2B3 B3B4 B4C4 C4C3 C3C2 C2C1 C1C0 C0D0 D0E0 E0F0 F0E0 E0D0 D0C0 C0B0 B0A0 A0A1 A1A0 A0B0 B0B1 B1B2 B2C2 C2B2 B2C2 C2C3 C3C4 C4C5 C5C6 C6B6 B6C6 C6D6 D6E6 E6F6 F6F5 F5G5 G5F5 F5E5 E5D5 D5C5 C5D5 D5D4 D4D3 D3D2 D2D1 D1C1 C1B1 B1B2 B2B3 B3B4 B4B5 B5C5 C5D5 D5D4 D4D3 D3D2 D2D1 D1D2 D2E2 E2E1 E1E0 E0F0 F0E0 E0D0 D0C0 C0B0 B0B1 B1B2 B2B3 B3B4 B4C4 C4D4 D4E4 E4F4 F4G4 G4G3 G3G4 G4G3 G3G2 G2G1 G1F1 F1E1 E1E2 E2E1 E1D1 D1C1 C1B1 B1B2 B2C2 C2D2 D2E2 E2F2 F2F1 F1E1 E1E2 E2E3 E3E4 E4F4 F4E4 E4D4 D4C4 C4C5 C5C6 C6D6 D6D5 D5D4 D4D3 D3D4 D4E4 E4F4 F4G4 G4G3 G3G2 G2G3 G3G2 G2G1 G1F1 F1E1 E1D1 D1C1 C1D1 D1C1 C1B1 B1B2 B2B1 B1C1 C1C2 C2C3 C3C4 C4D4 D4E4 E4E3 E3D3 D3C3 C3B3 B3B4 B4B5 B5B6 B6C6 C6D6 D6E6 E6F6 F6F5 F5F4 F4F3 F3F2 F2F3 F3F4 F4E4 E4F4 F4G4 G4G5 G5G6 G6F6 F6E6 E6D6 D6C6 C6C5 C5C4 C4C3 C3C2 C2B2 B2B1 B1B2 B2B3 B3B4 B4B5 B5B6 B6C6 C6D6 D6C6 C6D6 D6E6 E6E5 E5E4 E4E5 E5E4 E4E3 E3E2 E2D2 D2C2 C2B2 B2C2 C2D2 D2E2 E2F2 F2E2 E2E1 E1E0 E0D0 D0C0 C0C1 C1D1 D1E1 E1F1 F1E1 E1E0 E0D0 D0C0 C0B0 B0B1 B1B2 B2B3 B3B4 B4C4 C4D4 D4E4 E4F4 F4E4 E4E3 E3D3 D3C3 C3C2 C2D2 D2D1 D1C1 C1B1 B1A1 A1B1 B1C1 C1D1 D1E1 E1E2 E2F2 F2E2 E2E3 E3E4 E4F4 F4G4 G4G3 G3F3 F3E3 E3D3 D3C3 C3B3 B3A3 A3B3 B3B4 B4B5 B5B6 B6C6 C6D6 D6C6 C6C5 C5C4 C4C3 C3C2 C2C1 C1C0 C0C1 C1C2 C2C3 C3C4 C4C5 C5D5 D5E5 E5D5 D5C5 C5B5 B5A5 A5A4 A4A3 A3A2 A2A1 A1A0 A0B0 B0C0 C0C1 C1C2 C2D2 D2D1 D1C1 C1B1 B1B2 B2B3 B3B2 B2A2"/>
    </vehicle>
    <vehicle id="3" depart="3.00">
        <route edges="D6C6 C6D6 D6E6 E6F6 F6F5 F5F6 F6F5 F5F4 F4F3 F3F4 F4F5 F5E5 E5D5 D5C5 C5C6 C6C5 C5B5 B5A5 A5A6 A6B6 B6B5 B5B4 B4B3 B3B2 B2B3 B3C3 C3D3 D3E3 E3F3 F3E3 E3D3 D3C3 C3B3 B3A3 A3A4 A4A5 A5A6 A6B6 B6C6 C6D6 D6D5 D5D4 D4D3 D3D2 D2D1 D1D2 D2D3 D3D4 D4D5 D5E5 E5F5 F5G5 G5G6 G6F6 F6E6 E6D6 D6C6 C6B6 B6B5 B5B4 B4B3 B3A3 A3A4 A4B4 B4C4 C4D4 D4E4 E4E5 E5E4 E4E3 E3D3 D3C3 C3C4 C4D4 D4E4 E4F4 F4G4 G4G3 G3G2 G2G1 G1G2 G2G3 G3G4 G4F4 F4E4 E4D4 D4E4 E4F4 F4F3 F3F2 F2F1 F1F0 F0E0 E0D0 D0C0 C0C1 C1D1 D1C1 C1B1 B1B2 B2B3 B3B4 B4B5 B5B6 B6B5 B5B4 B4B3 B3B2 B2B1 B1C1 C1D1 D1E1 E1F1 F1G1 G1G0 G0F0 F0F1 F1F2 F2G2 G2G3 G3G4 G4G5 G5G6 G6F6 F6E6 E6D6 D6E6 E6E5 E5D5 D5C5 C5B5 B5C5 C5C4 C4C3 C3C4 C4C5 C5C6 C6B6 B6A6 A6A5 A5A4 A4A3 A3A4 A4B4 B4C4 C4D4 D4D3 D3D2 D2E2 E2F2 F2F3 F3F4 F4F5 F5F6 F6E6 E6E5 E5E4 E4D4 D4E4 E4D4 D4C4 C4B4 B4A4 A4A3 A3A2 A2A1 A1A0 A0B0 B0C0 C0D0 D0E0 E0F0 F0F1 F1G1 G1F1 F1E1 E1D1 D1C1 C1B1 B1B2 B2B3 B3B4 B4B5 B5B4 B4B3 B3A3 A3B3 B3C3 C3C2 C2C3 C3C4 C4C5 C5D5 D5E5 E5E4 E4E3 E3E2 E2E1 E1D1 D1C1 C1B1 B1C1 C1D1 D1D2 D2D3 D3D4 D4D5 D5D6 D6C6 C6C5 C5C4 C4C3 C3B3 B3C3 C3D3 D3E3 E3F3 F3G3 G3G2 G2G1 G1F1 F1G1 G1F1 F1E1 E1D1 D1C1 C1C2 C2D2 D2D3 D3D4 D4D5 D5D6 D6C6 C6D6 D6E6 E6F6 F6G6 G6G5 G5G4 G4G3 G3G2 G2G1 G1G2 G2G3 G3G4 G4G5 G5F5 F5G5 G5G4 G4G3 G3F3 F3E3 E3E4 E4E3 E3E2 E2E1 E1D1 D1C1 C1B1 B1A1 A1B1 B1B2 B2B3 B3B4 B4B5 B5B6 B6C6 C6D6 D6C6 C6D6 D6E6 E6E5 E5E4 E4E3 E3E2 E2D2 D2D3 D3E3 E3F3 F3E3 E3D3 D3D2 D2D1 D1D0 D0E0 E0D0 D0C0 C0B0 B0B1 B1B2 B2B3 B3B4 B4B5 B5B6 B6C6 C6D6 D6D5 D5D4 D4D3 D3E3 E3F3 F3F4 F4F3 F3F2 F2F1 F1E1 E1E0 E0F0 F0E0 E0D0 D0C0 C0B0 B0B1 B1B0 B0B1 B1B2 B2B3 B3B4 B4B5 B5B6 B6C6 C6D6 D6E6 E6F6 F6F5 F5F4 F4E4 E4D4 D4D3 D3D2 D2D1 D1D0 D0E0 E0F0 F0E0 E0D0 D0D1 D1D2 D2D3 D3E3 E3E4 E4E5 E5E6 E6F6 F6G6 G6G5 G5G6 G6F6 F6F5 F5E5 E5F5 F5E5 E5D5 D5C5 C5B5 B5B4 B4B3 B3B2 B2B3 B3B4 B4C4 C4D4 D4C4 C4C5 C5C6 C6D6 D6E6 E6E5 E5E4 E4E3 E3E2 E2E1 E1E2"/>
    </vehicle>
    <vehicle id="4" depart="4.00">
        <route edges="F4E4 E4F4 F4E4 E4E5 E5D5 D5E5 E5F5 F5F4 F4F3 F3F2 F2F3 F3F2 F2E2 E2D2 D2C2 C2C3 C3D3 D3D2 D2D1 D1D0 D0E0 E0F0 F0G0 G0G1 G1G2 G2G3 G3G4 G4G5 G5G6 G6F6 F6G6 G6G5 G5G4 G4F4 F4E4 E4D4 D4D3 D3D2 D2D1 D1C1 C1B1 B1B0 B0B1 B1B2 B2B3 B3B4 B4C4 C4C3 C3B3 B3B4 B4B5 B5B6 B6C6 C6C5 C5C4 C4C3 C3C2 C2C1 C1B1 B1A1 A1A2 A2B2 B2C2 C2D2 D2E2 E2F2 F2G2 G2G1 G1G0 G0F0 F0E0 E0D0 D0C0 C0B0 B0B1 B1B2 B2B1 B1B2 B2B3 B3C3 C3D3 D3E3 E3F3 F3F4 F4E4 E4D4 D4C4 C4B4 B4C4 C4D4 D4E4 E4F4 F4G4 G4G3 G3F3 F3E3 E3D3 D3C3 C3B3 B3A3 A3A4 A4A5 A5A6 A6B6 B6C6 C6D6 D6E6 E6F6 F6G6 G6G5 G5G4 G4G3 G3G2 G2G1 G1G0 G0F0 F0F1 F1F2 F2F3 F3F4 F4F5 F5F6 F6G6 G6G5 G5F5 F5E5 E5D5 D5C5 C5D5 D5E5 E5F5 F5F4 F4F3 F3F2 F2F1 F1E1 E1E0 E0D0 D0C0 C0C1 C1C2 C2C3 C3C4 C4D4 D4E4 E4F4 F4E4 E4D4 D4C4 C4B4 B4A4 A4A5 A5B5 B5C5 C5D5 D5E5 E5F5 F5F4 F4F3 F3F2 F2F3 F3F4 F4F5 F5F6 F6E6 E6D6 D6C6 C6B6 B6C6 C6C5 C5B5 B5B4 B4B3 B3B2 B2B1 B1B0 B0C0 C0C1 C1B1 B1B0 B0C0 C0D0 D0E0 E0D0 D0C0 C0B0 B0A0 A0A1 A1A2 A2A3 A3A4 A4A5 A5B5 B5C5 C5D5 D5E5 E5E4 E4E3 E3D3 D3C3 C3B3 B3A3 A3A4 A4A5 A5A6 A6B6 B6C6 C6D6 D6E6 E6E5 E5E4 E4E3 E3D3 D3C3 C3B3 B3C3 C3C4 C4C3 C3C2 C2C1 C1B1 B1A1 A1A0 A0B0 B0B1 B1B2 B2B3 B3C3 C3C4 C4C5 C5C6 C6D6 D6E6 E6F6 F6E6 E6E5 E5D5 D5C5 C5D5 D5D4 D4D3 D3D2 D2D3 D3E3 E3F3 F3F2 F2F1 F1G1 G1G2 G2G1 G1F1 F1F2 F2F3 F3F4 F4F5 F5G5 G5G4 G4F4 F4E4 E4D4 D4D5 D5D6 D6E6 E6F6 F6F5 F5E5 E5F5 F5G5 G5G4 G4G3 G3F3 F3F4 F4F5 F5F6 F6E6 E6D6 D6C6 C6C5 C5C4 C4D4 D4E4 E4F4 F4F3 F3F2 F2F1 F1E1 E1E2 E2F2 F2F1 F1F0 F0G0 G0G1 G1G2 G2G3 G3G4 G4G5 G5G6 G6F6 F6E6 E6D6 D6C6 C6C5 C5C4 C4C3 C3C2 C2C1 C1C2 C2C3 C3C4 C4B4 B4A4 A4A5 A5B5 B5C5 C5D5 D5E5 E5E4 E4E3 E3E2 E2E1 E1E2 E2F2 F2F3 F3F4 F4F5 F5F6 F6E6 E6D6 D6E6 E6F6 F6G6 G6G5 G5G4 G4G3 G3G2 G2G1 G1G0 G0F0 F0F1 F1F0"/>
    </vehicle>
    <vehicle id="5" depart="5.00">
        <route edges="F2G2 G2F2 F2E2 E2E3 E3E4 E4E5 E5D5 D5E5 E5F5 F5G5 G5G4 G4G3 G3G2 G2G1 G1G2 G2G3 G3G4 G4F4 F4E4 E4F4 F4G4 G4G3 G3G2 G2G1 G1F1 F1E1 E1D1 D1C1 C1B1 B1A1 A1A2 A2A3 A3A4 A4A5 A5B5 B5C5 C5D5 D5E5 E5E4 E4E3 E3E2 E2D2 D2D3 D3D4 D4D5 D5D6 D6C6 C6B6 B6A6 A6A5 A5A4 A4A3 A3A2 A2B2 B2C2 C2B2 B2C2 C2D2 D2D1 D1D0 D0D1 D1D2 D2D3 D3D4 D4D5 D5E5 E5F5 F5G5 G5G6 G6F6 F6F5 F5G5 G5G6 G6F6 F6E6 E6D6 D6E6 E6F6 F6G6 G6G5 G5G6 G6F6 F6E6 E6D6 D6C6 C6C5 C5C4 C4C3 C3C2 C2C1 C1B1 B1C1 C1D1 D1E1 E1F1 F1F2 F2F3 F3F2 F2F1 F1F0 F0E0 E0D0 D0C0 C0B0 B0A0 A0A1 A1A0 A0B0 B0C0 C0D0 D0D1 D1D2 D2E2 E2D2 D2E2 E2F2 F2G2 G2G1 G1G0 G0F0 F0E0 E0D0 D0C0 C0C1 C1C0 C0B0 B0B1 B1B2 B2B3 B3B4 B4C4 C4C5 C5C4 C4C3 C3C4 C4D4 D4E4 E4F4 F4G4 G4G3 G3G2 G2F2 F2E2 E2F2 F2E2 E2D2 D2D3 D3D4 D4E4 E4F4 F4F3 F3F2 F2E2 E2D2 D2C2 C2B2 B2A2 A2A1 A1A0 A0B0 B0B1 B1B2 B2C2 C2B2 B2C2 C2D2 D2D3 D3D4 D4D5 D5D4 D4D3 D3E3 E3F3 F3F4 F4E4 E4F4 F4F3 F3F2 F2E2 E2D2 D2C2 C2B2 B2A2 A2B2 B2B3 B3B4 B4C4 C4D4 D4E4 E4D4 D4D3 D3D2 D2C2 C2B2 B2A2 A2A3 A3B3 B3C3 C3D3 D3D2 D2D1 D1D0 D0D1 D1E1 E1E2 E2E3 E3E4 E4E5 E5D5 D5C5 C5B5 B5B4 B4B3 B3C3 C3D3 D3D4 D4D5 D5D6 D6E6 E6F6 F6G6 G6G5 G5G4 G4F4 F4E4 E4D4 D4C4 C4B4 B4A4 A4A3 A3A2 A2A1 A1A2 A2A3 A3A4 A4A5 A5B5 B5C5 C5D5 D5E5 E5F5 F5F4 F4F3 F3E3 E3D3 D3C3 C3B3 B3A3 A3A4 A4B4 B4C4 C4C3 C3C2 C2D2 D2E2 E2E1 E1E2 E2E3 E3E4 E4E5 E5D5 D5C5 C5C4 C4B4 B4A4 A4A5 A5A6 A6B6 B6B5 B5B4 B4B3 B3B2 B2B1 B1A1 A1A2 A2A3 A3A4 A4A5 A5A6 A6B6 B6C6 C6D6 D6E6 E6F6 F6G6 G6G5 G5G4 G4G3 G3G2 G2F2 F2F3 F3E3 E3E2 E2F2 F2G2 G2F2 F2E2 E2D2 D2C2 C2C3 C3D3 D3D4 D4E4 E4F4 F4G4 G4F4 F4F3 F3F2 F2F1 F1E1 E1D1 D1D2 D2D3 D3C3 C3B3 B3A3 A3A2 A2A3 A3A4 A4B4 B4C4 C4D4 D4C4 C4D4 D4E4 E4F4 F4E4 E4F4 F4G4 G4G3 G3G4 G4G3 G3G2 G2G1 G1F1 F1E1 E1D1 D1D0 D0C0 C0B0 B0B1 B1B2 B2B3 B3B4 B4B5 B5B6"/>
    </vehicle>
    <vehicle id="6" depart="6.00">
        <route edges="D2E2 E2D2 D2C2 C2B2 B2A2 A2A3 A3A4 A4B4 B4A4 A4A5 A5B5 B5C5 C5D5 D5E5 E5D5 D5E5 E5F5 F5F6 F6F5 F5E5 E5D5 D5C5 C5B5 B5A5 A5A4 A4A3 A3A2 A2A1 A1B1 B1C1 C1D1 D1E1 E1F1 F1E1 E1D1 D1C1 C1B1 B1A1 A1A2 A2A3 A3A4 A4A5 A5A6 A6B6 B6C6 C6C5 C5C4 C4D4 D4D3 D3D2 D2D1 D1D0 D0E0 E0D0 D0C0 C0B0 B0B1 B1B2 B2B3 B3A3 A3A4 A4A5 A5B5 B5C5 C5D5 D5E5 E5D5 D5D4 D4D3 D3D2 D2D3 D3D4 D4D5 D5E5 E5D5 D5D6 D6E6 E6F6 F6G6 G6G5 G5G4 G4G3 G3G2 G2G1 G1G0 G0F0 F0G0 G0G1 G1F1 F1E1 E1D1 D1C1 C1B1 B1A1 A1A2 A2B2 B2C2 C2D2 D2E2 E2F2 F2E2 E2D2 D2C2 C2C3 C3C4 C4C5 C5C4 C4D4 D4E4 E4F4 F4G4 G4G3 G3F3 F3E3 E3D3 D3C3 C3B3 B3A3 A3A4 A4A5 A5B5 B5C5 C5D5 D5D4 D4D3 D3C3 C3C4 C4C5 C5C6 C6C5 C5C4 C4C3 C3C2 C2D2 D2E2 E2F2 F2E2 E2D2 D2D3 D3D4 D4E4 E4D4 D4C4 C4C5 C5D5 D5D6 D6E6 E6F6 F6F5 F5F4 F4F3 F3F2 F2F1 F1F0 F0E0 E0D0 D0D1 D1D2 D2D3 D3D4 D4D5 D5D6 D6E6 E6F6 F6E6 E6D6 D6C6 C6C5 C5C4 C4C3 C3C2 C2B2 B2B3 B3C3 C3C2 C2C1 C1D1 D1E1 E1F1 F1F2 F2F3 F3F4 F4F5 F5F6 F6F5 F5F4 F4F3 F3E3 E3D3 D3C3 C3C4 C4C5 C5D5 D5E5 E5F5 F5G5 G5G6 G6F6 F6E6 E6D6 D6D5 D5D4 D4D3 D3C3 C3C4 C4D4 D4E4 E4F4 F4F3 F3F2 F2F1 F1E1 E1D1 D1C1 C1B1 B1C1 C1B1 B1B2 B2B3 B3B4 B4B3 B3B2 B2B3 B3C3 C3D3 D3E3 E3F3 F3G3 G3F3 F3E3 E3D3 D3C3 C3C4 C4C5 C5D5 D5E5 E5F5 F5F4 F4F3 F3F2 F2F1 F1E1 E1D1 D1C1 C1B1 B1A1 A1B1 B1C1 C1C2 C2C3 C3C4 C4C5 C5C6 C6C5 C5C4 C4D4 D4E4 E4E3 E3E2 E2F2 F2G2 G2G3 G3G4 G4G5 G5F5 F5F4 F4F3 F3F2 F2E2 E2D2 D2E2 E2D2 D2C2 C2B2 B2A2 A2A3 A3A4 A4A5 A5A4 A4A5 A5B5 B5B6 B6C6 C6D6 D6E6 E6E5 E5E4 E4E3 E3E2 E2E1 E1D1 D1C1 C1B1 B1A1 A1A2 A2A3 A3A4 A4A5 A5A6 A6B6 B6C6 C6C5 C5C4 C4D4 D4E4 E4E3 E3E2 E2E1 E1F1 F1F0 F0E0 E0D0 D0C0 C0B0 B0A0 A0A1 A1A0 A0B0 B0C0 C0D0 D0E0 E0E1 E1E2 E2E3 E3E4 E4E5 E5E6 E6F6 F6G6 G6G5 G5G6 G6F6 F6E6 E6D6 D6C6 C6B6 B6A6 A6A5 A5A4 A4A3 A3B3 B3C3 C3D3 D3E3 E3F3 F3E3 E3D3 D3C3 C3B3 B3A3 A3A4 A4A5 A5B5 B5C5 C5D5 D5E5 E5E4 E4E3 E3E2 E2E1 E1E2 E2E1 E1E0 E0D0 D0C0 C0C1"/>
    </vehicle>
    <vehicle id="7" depart="7.00">
        <route edges="F4F3 F3F2 F2G2 G2F2 F2E2 E2D2 D2C2 C2C3 C3C4 C4B4 B4C4 C4D4 D4E4 E4E3 E3E2 E2E1 E1D1 D1D2 D2D3 D3D4 D4D5 D5D6 D6C6 C6B6 B6C6 C6D6 D6D5 D5D6 D6D5 D5C5 C5C6 C6B6 B6C6 C6D6 D6E6 E6F6 F6F5 F5F4 F4F3 F3F2 F2E2 E2D2 D2C2 C2C3 C3C4 C4C5 C5C6 C6D6 D6D5 D5D4 D4D3 D3D2 D2D1 D1D0 D0C0 C0C1 C1C2 C2C3 C3C4 C4B4 B4B3 B3B2 B2B1 B1B2 B2B3 B3B4 B4C4 C4D4 D4E4 E4F4 F4G4 G4G3 G3G2 G2G3 G3G2 G2G1 G1G0 G0F0 F0E0 E0D0 D0D1 D1D2 D2D3 D3D4 D4D5 D5C5 C5B5 B5A5 A5B5 B5C5 C5D5 D5C5 C5C4 C4C3 C3C2 C2C1 C1C0 C0D0 D0E0 E0F0 F0F1 F1F2 F2F3 F3F4 F4F5 F5E5 E5D5 D5C5 C5B5 B5B6 B6C6 C6D6 D6E6 E6F6 F6F5 F5F4 F4F3 F3E3 E3D3 D3D2 D2D3 D3D4 D4D5 D5D6 D6E6 E6F6 F6F5 F5F4 F4F3 F3F2 F2F1 F1F0 F0E0 E0D0 D0D1 D1D2 D2D3 D3C3 C3B3 B3A3 A3A4 A4A5 A5A6 A6B6 B6C6 C6D6 D6E6 E6F6 F6G6 G6G5 G5G4 G4G3 G3G4 G4G5 G5F5 F5E5 E5D5 D5C5 C5C4 C4C3 C3C2 C2D2 D2E2 E2E3 E3E4 E4E5 E5E6 E6D6 D6C6 C6B6 B6B5 B5B6 B6C6 C6D6 D6E6 E6F6 F6E6 E6D6 D6C6 C6B6 B6A6 A6A5 A5A6 A6B6 B6C6 C6D6 D6E6 E6E5 E5E6 E6E5 E5E4 E4E3 E3D3 D3C3 C3C4 C4C5 C5C6 C6D6 D6E6 E6F6 F6G6 G6G5 G5G4 G4G3 G3G2 G2G1 G1G0 G0F0 F0E0 E0D0 D0C0 C0B0 B0C0 C0D0 D0D1 D1D2 D2D3 D3D4 D4E4 E4F4 F4F5 F5F4 F4E4 E4D4 D4D3 D3D2 D2E2 E2F2 F2G2 G2F2 F2E2 E2D2 D2C2 C2B2 B2A2 A2A1 A1A0 A0B0 B0C0 C0D0 D0E0 E0E1 E1E2 E2E3 E3E4 E4F4 F4E4 E4D4 D4D5 D5D4 D4D3 D3E3 E3F3 F3F2 F2F1 F1F0 F0E0 E0D0 D0C0 C0C1 C1C2 C2C3 C3C4 C4D4 D4E4 E4F4 F4G4 G4G3 G3G2 G2G1 G1G0 G0F0 F0E0 E0E1 E1E2 E2E3 E3E4 E4E5 E5F5 F5G5 G5G4 G4G3 G3G2 G2G1 G1F1 F1E1 E1D1 D1C1 C1D1 D1E1 E1F1 F1G1 G1G0 G0F0 F0F1 F1F2 F2F3 F3F4 F4F5 F5G5 G5G4 G4G3 G3G2 G2F2 F2E2 E2D2 D2C2 C2D2 D2D3 D3D4 D4D5 D5D6 D6E6 E6F6 F6F5 F5F4 F4F3 F3F2 F2F1 F1E1 E1D1 D1C1 C1B1 B1B2 B2A2 A2A3 A3A4 A4A5 A5A6 A6B6 B6C6 C6D6 D6E6 E6F6 F6G6 G6G5 G5G4 G4G3 G3G4 G4G3 G3G2 G2G1 G1F1 F1E1 E1F1 F1E1 E1D1 D1C1 C1C2 C2D2 D2D1 D1D0 D0E0 E0F0 F0G0 G0G1 G1G2 G2F2 F2E2 E2D2 D2C2 C2B2 B2A2 A2A3 A3B3 B3C3 C3C2 C2C1 C1C0 C0D0 D0E0 E0E1"/>
    </vehicle>
    <vehicle id="8" depart="8.00">
        <route edges="G2G3 G3F3 F3G3 G3G2 G2F2 F2G2 G2F2 F2F3 F3F4 F4E4 E4E5 E5D5 D5E5 E5F5 F5F4 F4F3 F3E3 E3E4 E4E5 E5F5 F5F4 F4F3 F3E3 E3D3 D3C3 C3B3 B3A3 A3B3 B3C3 C3D3 D3E3 E3E4 E4E5 E5E6 E6E5 E5E4 E4D4 D4C4 C4B4 B4C4 C4D4 D4E4 E4F4 F4F3 F3F2 F2F1 F1E1 E1D1 D1C1 C1B1 B1A1 A1A2 A2A3 A3A4 A4A3 A3A2 A2A1 A1A0 A0B0 B0C0 C0D0 D0E0 E0F0 F0G0 G0G1 G1G2 G2G3 G3G4 G4G5 G5F5 F5E5 E5E6 E6E5 E5E4 E4E3 E3E2 E2D2 D2C2 C2B2 B2C2 C2B2 B2B3 B3C3 C3C2 C2B2 B2A2 A2A3 A3B3 B3B2 B2B1 B1B2 B2B3 B3B4 B4B5 B5C5 C5D5 D5E5 E5F5 F5G5 G5G4 G4G3 G3F3 F3E3 E3E4 E4E5 E5E6 E6E5 E5E4 E4E3 E3E4 E4E3 E3E2 E2E1 E1D1 D1C1 C1B1 B1B2 B2C2 C2D2 D2E2 E2E1 E1D1 D1E1 E1D1 D1C1 C1C2 C2C3 C3C4 C4C3 C3C2 C2B2 B2B3 B3B4 B4B5 B5A5 A5A6 A6B6 B6C6 C6D6 D6E6 E6F6 F6F5 F5F4 F4F3 F3F2 F2F3 F3F4 F4F5 F5F6 F6E6 E6E5 E5E4 E4F4 F4G4 G4F4 F4F5 F5F6 F6E6 E6D6 D6C6 C6C5 C5C4 C4C3 C3C2 C2C1 C1D1 D1E1 E1D1 D1D2 D2D3 D3D4 D4E4 E4F4 F4F3 F3F2 F2F1 F1F0 F0E0 E0D0 D0C0 C0B0 B0A0 A0A1 A1A2 A2A3 A3A4 A4A5 A5A6 A6B6 B6C6 C6C5 C5C4 C4C3 C3C2 C2C1 C1B1 B1A1 A1A2 A2A1 A1A0 A0B0 B0C0 C0D0 D0E0 E0F0 F0F1 F1F2 F2F3 F3F4 F4E4 E4D4 D4C4 C4B4 B4A4 A4B4 B4C4 C4D4 D4E4 E4F4 F4G4 G4G3 G3G2 G2G3 G3G2 G2F2 F2E2 E2D2 D2C2 C2B2 B2A2 A2B2 B2C2 C2D2 D2E2 E2E1 E1E0 E0E1 E1F1 F1F2 F2F3 F3F4 F4E4 E4E5 E5E4 E4E3 E3E2 E2E1 E1D1 D1C1 C1B1 B1B2 B2B3 B3B4 B4B5 B5B6 B6C6 C6D6 D6D5 D5D4 D4D3 D3E3 E3D3 D3E3 E3F3 F3G3 G3G2 G2F2 F2E2 E2D2 D2D1 D1D0 D0D1 D1D2 D2D3 D3D4 D4D5 D5E5 E5E6 E6E5 E5E4 E4D4 D4C4 C4B4 B4B5 B5C5 C5D5 D5E5 E5F5 F5F4 F4F3 F3F4 F4F5 F5F6 F6E6 E6D6 D6C6 C6B6 B6A6 A6A5 A5A4 A4A3 A3A2 A2A1 A1B1 B1C1 C1D1 D1C1 C1C2 C2D2 D2D3 D3D4 D4C4 C4C3 C3C2 C2C1 C1B1 B1B2 B2B3 B3B4 B4B3 B3B4 B4B5 B5B6 B6C6 C6D6 D6E6 E6F6 F6G6 G6G5 G5G4 G4G3 G3G2 G2G1 G1G0 G0F0 F0E0 E0D0 D0C0 C0C1 C1C2 C2D2 D2D3 D3D4 D4C4 C4D4 D4E4 E4F4 F4G4 G4G3 G3G2 G2F2 F2E2 E2D2 D2C2 C2C3 C3C4 C4C5 C5D5"/>
    </vehicle>
    <vehicle id="9" depart="9.00">
        <route edges="A5B5 B5B6 B6C6 C6D6 D6E6 E6F6 F6G6 G6G5 G5G6 G6F6 F6E6 E6D6 D6C6 C6D6 D6D5 D5D4 D4C4 C4B4 B4A4 A4A5 A5B5 B5C5 C5D5 D5E5 E5F5 F5F4 F4F3 F3F4 F4F5 F5E5 E5E4 E4E3 E3E2 E2E3 E3E4 E4E5 E5E6 E6D6 D6C6 C6C5 C5C4 C4C3 C3D3 D3E3 E3E4 E4E5 E5E6 E6E5 E5E4 E4E3 E3E2 E2E1 E1D1 D1C1 C1C0 C0B0 B0B1 B1B2 B2B3 B3B4 B4B5 B5B6 B6C6 C6D6 D6D5 D5E5 E5F5 F5G5 G5G4 G4F4 F4F3 F3F2 F2E2 E2D2 D2C2 C2B2 B2C2 C2C3 C3C4 C4C5 C5D5 D5D4 D4D3 D3C3 C3B3 B3A3 A3A4 A4B4 B4C4 C4D4 D4E4 E4E3 E3F3 F3F2 F2F1 F1E1 E1D1 D1C1 C1B1 B1C1 C1C2 C2C3 C3C4 C4D4 D4C4 C4D4 D4E4 E4F4 F4G4 G4G3 G3G2 G2G1 G1G0 G0F0 F0E0 E0D0 D0C0 C0C1 C1C2 C2C3 C3B3 B3A3 A3A2 A2A1 A1B1 B1C1 C1D1 D1E1 E1F1 F1F0 F0E0 E0E1 E1F1 F1F2 F2F3 F3F4 F4F5 F5F6 F6E6 E6D6 D6C6 C6C5 C5C6 C6D6 D6E6 E6F6 F6F5 F5F4 F4F3 F3F2 F2F1 F1E1 E1D1 D1C1 C1C2 C2C3 C3C4 C4B4 B4A4 A4A3 A3B3 B3C3 C3D3 D3E3 E3E4 E4E3 E3E2 E2E1 E1F1 F1E1 E1D1 D1C1 C1B1 B1A1 A1A2 A2A3 A3A4 A4A5 A5B5 B5C5 C5D5 D5E5 E5F5 F5E5 E5E6 E6F6 F6G6 G6G5 G5G4 G4G3 G3F3 F3E3 E3D3 D3C3 C3C4 C4C5 C5C6 C6D6 D6E6 E6D6 D6C6 C6B6 B6A6 A6A5 A5A4 A4A3 A3A2 A2A1 A1A0 A0B0 B0C0 C0D0 D0E0 E0F0 F0E0 E0D0 D0D1 D1D2 D2D3 D3D4 D4D5 D5C5 C5D5 D5E5 E5E4 E4E3 E3D3 D3C3 C3B3 B3A3 A3A4 A4A5 A5A6 A6B6 B6C6 C6D6 D6E6 E6F6 F6F5 F5F4 F4F3 F3E3 E3D3 D3D4 D4D3 D3D2 D2C2 C2B2 B2B3 B3B4 B4B5 B5B6 B6B5 B5C5 C5D5 D5E5 E5F5 F5G5 G5F5 F5E5 E5D5 D5C5 C5B5 B5B4 B4B3 B3B2 B2C2 C2D2 D2E2 E2F2 F2G2 G2G3 G3G4 G4G5 G5G6 G6F6 F6E6 E6E5 E5E4 E4E3 E3E2 E2D2 D2E2 E2F2 F2F3 F3F4 F4F5 F5F6 F6E6 E6D6 D6C6 C6C5 C5C4 C4C3 C3C2 C2C1 C1C0 C0C1 C1C2 C2C3 C3C4 C4C5 C5C6 C6D6 D6D5 D5D4 D4C4 C4B4 B4B3 B3B2 B2B3 B3C3 C3C2 C2C1 C1C2 C2D2 D2D1 D1D2 D2D3 D3D4 D4E4 E4F4 F4F5 F5F6 F6E6 E6E5 E5E4 E4E3 E3D3 D3D4 D4D5 D5D6 D6E6 E6E5 E5E4 E4D4 D4C4 C4C3 C3D3 D3E3 E3F3 F3E3 E3D3 D3C3 C3C4 C4C5 C5D5 D5C5 C5C4 C4C3 C3C2 C2C1 C1C0"/>
    </vehicle>
    <vehicle id="10" depart="10.00">
        <route edges="E4D4 D4E4 E4E3 E3D3 D3D4 D4D5 D5D4 D4D3 D3D2 D2C2 C2D2 D2E2 E2F2 F2G2 G2F2 F2E2 E2D2 D2C2 C2C3 C3C4 C4C3 C3C4 C4D4 D4E4 E4F4 F4E4 E4E3 E3E2 E2E1 E1E0 E0E1 E1E2 E2E3 E3E4 E4E5 E5E6 E6D6 D6C6 C6B6 B6C6 C6D6 D6E6 E6F6 F6E6 E6E5 E5E4 E4E3 E3E2 E2D2 D2E2 E2E3 E3E2 E2D2 D2D1 D1C1 C1B1 B1A1 A1B1 B1B0 B0C0 C0D0 D0E0 E0D0 D0D1 D1D2 D2E2 E2F2 F2F1 F1E1 E1D1 D1D2 D2D3 D3D4 D4D5 D5C5 C5C4 C4C3 C3D3 D3D2 D2D3 D3D4 D4D3 D3C3 C3D3 D3E3 E3F3 F3F4 F4F5 F5F4 F4F3 F3F2 F2F1 F1F0 F0E0 E0D0 D0D1 D1D2 D2D3 D3D4 D4D5 D5D6 D6E6 E6F6 F6F5 F5F4 F4F3 F3F2 F2F1 F1F0 F0E0 E0D0 D0E0 E0E1 E1E2 E2E3 E3E4 E4E5 E5D5 D5C5 C5B5 B5A5 A5B5 B5C5 C5D5 D5D4 D4D3 D3D2 D2D1 D1D2 D2D1 D1E1 E1E2 E2E3 E3E4 E4E5 E5E6 E6F6 F6F5 F5F4 F4F3 F3F2 F2F1 F1E1 E1F1 F1E1 E1D1 D1C1 C1C2 C2C3 C3C4 C4C5 C5B5 B5C5 C5C4 C4C5 C5C4 C4C3 C3D3 D3C3 C3B3 B3B2 B2B1 B1B0 B0B1 B1C1 C1D1 D1E1 E1E0 E0D0 D0C0 C0B0 B0A0 A0A1 A1A0 A0B0 B0C0 C0D0 D0E0 E0F0 F0G0 G0G1 G1G2 G2G3 G3G4 G4G5 G5G6 G6F6 F6F5 F5F4 F4F3 F3F2 F2F1 F1E1 E1E2 E2E3 E3E4 E4E3 E3E2 E2E1 E1D1 D1C1 C1C2 C2C1 C1C0 C0B0 B0B1 B1B2 B2A2 A2A1 A1A2 A2A3 A3A4 A4A5 A5A6 A6B6 B6C6 C6D6 D6D5 D5D4 D4D3 D3D2 D2C2 C2B2 B2A2 A2A3 A3A4 A4A5 A5B5 B5C5 C5D5 D5D4 D4C4 C4C5 C5D5 D5E5 E5F5 F5F4 F4F3 F3E3 E3E4 E4E3 E3E2 E2E1 E1D1 D1D0 D0E0 E0E1 E1E2 E2E3 E3E4 E4E5 E5D5 D5C5 C5B5 B5A5 A5B5 B5C5 C5D5 D5E5 E5E4 E4E3 E3E2 E2D2 D2D3 D3D4 D4D5 D5D6 D6C6 C6D6 D6E6 E6F6 F6F5 F5F4 F4F3 F3G3 G3F3 F3E3 E3D3 D3C3 C3B3 B3B4 B4B5 B5A5 A5B5 B5C5 C5D5 D5E5 E5F5 F5G5 G5G4 G4G3 G3G4 G4G5 G5G4 G4F4 F4E4 E4D4 D4C4 C4B4 B4B5 B5B6 B6B5 B5A5 A5A6 A6B6 B6C6 C6D6 D6D5 D5D4 D4D3 D3C3 C3B3 B3B2 B2B1 B1B0 B0C0 C0D0 D0E0"/>
    </vehicle>
    <vehicle id="11" depart="11.00">
        <route edges="B6B5 B5B4 B4B3 B3A3 A3A4 A4A5 A5A6 A6B6 B6C6 C6D6 D6E6 E6F6 F6G6 G6G5 G5G4 G4G3 G3F3 F3F4 F4F5 F5F6 F6E6 E6D6 D6C6 C6B6 B6B5 B5B4 B4B3 B3B2 B2B1 B1C1 C1D1 D1E1 E1F1 F1F2 F2F3 F3F4 F4F5 F5F6 F6F5 F5F4 F4F3 F3F2 F2E2 E2D2 D2C2 C2C3 C3C4 C4C5 C5C6 C6B6 B6C6 C6D6 D6E6 E6E5 E5E4 E4E3 E3E2 E2E1 E1E0 E0D0 D0D1 D1D2 D2D3 D3D4 D4D5 D5E5 E5F5 F5G5 G5F5 F5E5 E5D5 D5C5 C5B5 B5B4 B4B3 B3B2 B2B1 B1B0 B0B1 B1B2 B2C2 C2D2 D2E2 E2E1 E1D1 D1C1 C1B1 B1B2 B2C2 C2C3 C3C4 C4C5 C5D5 D5E5 E5E6 E6D6 D6E6 E6F6 F6G6 G6G5 G5G4 G4G3 G3G2 G2F2 F2F3 F3F4 F4F5 F5F6 F6E6 E6D6 D6C6 C6D6 D6D5 D5D4 D4D3 D3D2 D2D1 D1D0 D0C0 C0C1 C1C2 C2D2 D2E2 E2F2 F2G2 G2F2 F2F3 F3F2 F2E2 E2D2 D2C2 C2B2 B2B3 B3B4 B4B5 B5C5 C5D5 D5D6 D6D5 D5C5 C5D5 D5E5 E5F5 F5F4 F4F3 F3F4 F4E4 E4D4 D4E4 E4E3 E3E2 E2E1 E1D1 D1C1 C1B1 B1A1 A1A2 A2A3 A3A4 A4A5 A5B5 B5C5 C5B5 B5B6 B6C6 C6D6 D6C6 C6C5 C5C4 C4C3 C3B3 B3B4 B4C4 C4D4 D4E4 E4F4 F4G4 G4G3 G3G2 G2G1 G1G0 G0F0 F0F1 F1F2 F2F3 F3E3 E3F3 F3F4 F4F5 F5F6 F6G6 G6G5 G5G4 G4F4 F4E4 E4E5 E5E6 E6D6 D6C6 C6B6 B6A6 A6A5 A5A4 A4A5 A5A4 A4A3 A3A2 A2A1 A1A2 A2A3 A3A4 A4A5 A5B5 B5C5 C5B5 B5B4 B4B3 B3B2 B2B1 B1B0 B0C0 C0D0 D0E0 E0F0 F0G0 G0G1 G1G2 G2G3 G3G4 G4G5 G5G6 G6F6 F6F5 F5F4 F4F3 F3G3 G3G2 G2F2 F2E2 E2D2 D2D3 D3E3 E3E2 E2D2 D2D3 D3D4 D4D5 D5D6 D6C6 C6D6 D6E6 E6E5 E5D5 D5C5 C5B5 B5B6 B6C6 C6C5 C5C4 C4C3 C3D3 D3D2 D2D1 D1D0 D0C0 C0B0 B0C0 C0B0 B0B1 B1B2 B2B3 B3B4 B4A4 A4B4 B4C4 C4D4 D4D3 D3C3 C3C2 C2C1 C1B1 B1C1 C1B1 B1B2 B2B3 B3B4 B4B5 B5C5 C5C4 C4B4 B4A4 A4A5 A5B5 B5C5 C5B5 B5B4 B4B3 B3B4 B4B3 B3B2 B2B3 B3B4 B4B5 B5B6 B6C6 C6D6 D6D5 D5D4 D4D3 D3D4 D4D5 D5E5 E5F5 F5F4 F4E4 E4E5 E5E6 E6F6 F6F5 F5E5 E5D5 D5C5 C5B5 B5B4 B4B3 B3B2 B2B1 B1A1 A1A2 A2A3 A3A4 A4A5 A5A6"/>
    </vehicle>
    <vehicle id="12" depart="12.00">
        <route edges="E2D2 D2E2 E2F2 F2G2 G2G1 G1G2 G2G3 G3G4 G4G3 G3G2 G2F2 F2E2 E2D2 D2C2 C2D2 D2E2 E2E3 E3D3 D3C3 C3B3 B3C3 C3C4 C4D4 D4E4 E4F4 F4F5 F5F6 F6E6 E6D6 D6E6 E6F6 F6G6 G6G5 G5G4 G4F4 F4E4 E4D4 D4C4 C4B4 B4B5 B5A5 A5B5 B5C5 C5D5 D5E5 E5F5 F5F4 F4F3 F3G3 G3F3 F3E3 E3D3 D3C3 C3B3 B3A3 A3A2 A2A1 A1A0 A0B0 B0C0 C0D0 D0E0 E0E1 E1E2 E2E3 E3E4 E4E5 E5F5 F5F4 F4F3 F3E3 E3D3 D3C3 C3B3 B3B4 B4B5 B5C5 C5D5 D5D4 D4D3 D3D2 D2E2 E2E3 E3E4 E4E5 E5E6 E6D6 D6C6 C6B6 B6B5 B5B6 B6A6 A6A5 A5A4 A4A3 A3A2 A2B2 B2A2 A2B2 B2C2 C2D2 D2D1 D1D0 D0C0 C0B0 B0A0 A0A1 A1A2 A2B2 B2C2 C2D2 D2E2 E2F2 F2F1 F1G1 G1F1 F1F2 F2F3 F3F4 F4G4 G4F4 F4E4 E4D4 D4D5 D5D4 D4D3 D3D2 D2D1 D1C1 C1C0 C0C1 C1C2 C2D2 D2D1 D1C1 C1B1 B1B2 B2B3 B3A3 A3B3 B3B2 B2A2 A2B2 B2C2 C2D2 D2E2 E2F2 F2E2 E2D2 D2C2 C2C3 C3C4 C4C5 C5D5 D5D6 D6C6 C6B6 B6C6 C6D6 D6E6 E6E5 E5F5 F5E5 E5D5 D5C5 C5B5 B5A5 A5B5 B5B4 B4A4 A4A5 A5B5 B5C5 C5D5 D5E5 E5F5 F5G5 G5G4 G4G3 G3G2 G2G1 G1G0 G0F0 F0E0 E0D0 D0D1 D1D2 D2D3 D3D4 D4D3 D3D4 D4C4 C4C3 C3C2 C2C1 C1C0 C0D0 D0E0 E0F0 F0G0 G0G1 G1G2 G2G3 G3F3 F3E3 E3D3 D3D4 D4D5 D5E5 E5F5 F5F6 F6F5 F5F4 F4F3 F3F2 F2F1 F1F0 F0E0 E0D0 D0C0 C0B0 B0B1 B1B2 B2B3 B3B4 B4C4 C4D4 D4E4 E4F4 F4G4 G4G5 G5G6 G6F6 F6F5 F5F4 F4F3 F3F2 F2F1 F1F0 F0G0 G0G1 G1G2 G2G3 G3F3 F3E3 E3D3 D3C3 C3B3 B3C3 C3D3 D3E3 E3E2 E2E3 E3E4 E4D4 D4D3 D3D4 D4D5 D5D6 D6E6 E6E5 E5E4 E4D4 D4C4 C4B4 B4B5 B5C5 C5D5 D5E5 E5F5 F5G5 G5G4 G4G3 G3G2 G2G1 G1F1 F1E1 E1D1 D1C1 C1C2 C2C3 C3C4 C4B4 B4A4 A4A3 A3B3 B3C3 C3D3 D3D2 D2D1 D1C1 C1B1 B1A1 A1A2 A2A3 A3A4 A4A5 A5A6 A6B6 B6C6 C6D6 D6E6 E6F6 F6F5 F5F4 F4F3 F3F2 F2E2 E2D2 D2C2 C2B2 B2A2 A2A3 A3B3 B3C3 C3B3 B3C3 C3C4 C4C5 C5C4 C4C3 C3B3 B3C3 C3D3 D3D2 D2C2 C2C3 C3C2 C2C1 C1C0 C0B0 B0A0 A0A1 A1A2 A2A3 A3A4 A4A5 A5A6 A6B6 B6C6 C6D6 D6E6 E6F6 F6E6 E6F6 F6F5 F5F6"/>
    </vehicle>
    <vehicle id="13" depart="13.00">
        <route edges="F3F2 F2E2 E2E3 E3E4 E4E5 E5E6 E6D6 D6C6 C6C5 C5C4 C4C3 C3C2 C2C1 C1D1 D1E1 E1E0 E0E1 E1E2 E2E3 E3E4 E4E5 E5E6 E6E5 E5E4 E4D4 D4E4 E4E3 E3E2 E2E1 E1E0 E0D0 D0C0 C0B0 B0B1 B1B2 B2B3 B3B4 B4B3 B3C3 C3D3 D3E3 E3F3 F3G3 G3F3 F3F4 F4F3 F3E3 E3D3 D3C3 C3B3 B3A3 A3A4 A4A3 A3B3 B3C3 C3C4 C4C3 C3B3 B3B4 B4C4 C4D4 D4D3 D3D2 D2D3 D3D4 D4D5 D5D6 D6E6 E6E5 E5E4 E4F4 F4F3 F3F2 F2G2 G2G3 G3G2 G2F2 F2F3 F3F4 F4F5 F5F6 F6G6 G6G5 G5G4 G4F4 F4E4 E4D4 D4C4 C4C3 C3C2 C2B2 B2A2 A2A3 A3B3 B3B2 B2B1 B1A1 A1A2 A2A3 A3B3 B3C3 C3D3 D3C3 C3D3 D3E3 E3F3 F3G3 G3F3 F3E3 E3D3 D3C3 C3B3 B3B4 B4B5 B5C5 C5C4 C4C3 C3C2 C2C1 C1B1 B1C1 C1D1 D1E1 E1F1 F1G1 G1G2 G2G3 G3G4 G4G5 G5G4 G4G3 G3F3 F3E3 E3D3 D3C3 C3B3 B3A3 A3A4 A4A5 A5A6 A6B6 B6C6 C6D6 D6D5 D5D4 D4D3 D3D2 D2D3 D3D4 D4E4 E4F4 F4E4 E4D4 D4C4 C4B4 B4A4 A4A3 A3A2 A2A1 A1A0 A0B0 B0C0 C0D0 D0E0 E0E1 E1E2 E2E3 E3E4 E4E5 E5F5 F5F4 F4F3 F3F2 F2F1 F1E1 E1D1 D1C1 C1B1 B1C1 C1D1 D1D2 D2D3 D3D4 D4D5 D5D4 D4D3 D3D2 D2C2 C2B2 B2C2 C2C3 C3D3 D3E3 E3F3 F3F2 F2E2 E2D2 D2C2 C2B2 B2A2 A2A3 A3A4 A4B4 B4C4 C4D4 D4E4 E4E3 E3E2 E2E1 E1D1 D1C1 C1B1 B1B2 B2C2 C2D2 D2C2 C2D2 D2E2 E2F2 F2F3 F3F4 F4F5 F5F6 F6G6 G6G5 G5G4 G4G3 G3F3 F3G3 G3G4 G4F4 F4E4 E4D4 D4C4 C4B4 B4B5 B5C5 C5D5 D5E5 E5F5 F5G5 G5G4 G4G3 G3G4 G4G5 G5G6 G6F6 F6E6 E6D6 D6E6 E6E5 E5E4 E4E3 E3E2 E2E1 E1E0 E0F0 F0E0 E0E1 E1E2 E2E3 E3E4 E4E5 E5E6 E6D6 D6E6 E6F6 F6G6 G6G5 G5G6 G6F6 F6E6 E6D6 D6D5 D5C5 C5C6 C6D6 D6E6 E6F6 F6G6 G6G5 G5G4 G4G3 G3G2 G2F2 F2E2 E2D2 D2C2 C2C1 C1B1 B1B2 B2B3 B3B4 B4C4 C4D4 D4E4 E4E3 E3D3 D3C3 C3B3 B3A3 A3A4 A4A5 A5B5 B5B4 B4B3 B3B2 B2B1 B1A1 A1B1 B1C1 C1D1 D1E1 E1F1 F1G1 G1G2 G2G3 G3G4 G4G5 G5G4 G4F4 F4E4 E4D4 D4C4 C4C5 C5C4 C4C3 C3B3 B3B2 B2B1 B1B0 B0C0 C0D0 D0E0 E0F0 F0G0 G0G1 G1G2 G2G3 G3G4 G4G5 G5F5 F5E5 E5D5 D5C5 C5C6 C6C5 C5C4 C4C3 C3C2 C2C3 C3C4 C4C5 C5C6 C6D6 D6E6 E6D6 D6E6 E6F6 F6G6 G6G5 G5G6 G6F6"/>
    </vehicle>
    <vehicle id="14" depart="14.00">
        <route edges="B2B1 B1B2 B2B3 B3B4 B4B5 B5C5 C5D5 D5E5 E5F5 F5G5 G5G4 G4G3 G3G2 G2F2 F2E2 E2D2 D2C2 C2C3 C3C4 C4C5 C5C6 C6D6 D6E6 E6F6 F6G6 G6G5 G5G6 G6F6 F6E6 E6D6 D6C6 C6B6 B6A6 A6A5 A5B5 B5B4 B4B3 B3B2 B2B1 B1C1 C1C2 C2C3 C3C4 C4C5 C5C6 C6D6 D6E6 E6F6 F6G6 G6G5 G5G4 G4G3 G3G2 G2G1 G1G0 G0F0 F0E0 E0D0 D0C0 C0B0 B0C0 C0D0 D0D1 D1D2 D2D3 D3E3 E3D3 D3C3 C3B3 B3A3 A3A2 A2A1 A1A2 A2A3 A3A4 A4B4 B4C4 C4D4 D4E4 E4E3 E3D3 D3C3 C3B3 B3B4 B4C4 C4C3 C3C2 C2C1 C1C2 C2C3 C3C4 C4D4 D4E4 E4E5 E5E4 E4D4 D4C4 C4B4 B4A4 A4A5 A5B5 B5C5 C5D5 D5D4 D4C4 C4B4 B4B5 B5A5 A5B5 B5C5 C5C4 C4C3 C3C2 C2B2 B2B3 B3C3 C3D3 D3E3 E3D3 D3D4 D4E4 E4F4 F4F3 F3F4 F4G4 G4G3 G3F3 F3F4 F4F3 F3E3 E3D3 D3C3 C3B3 B3B4 B4C4 C4D4 D4E4 E4F4 F4F3 F3E3 E3E2 E2E3 E3F3 F3G3 G3G2 G2F2 F2G2 G2G3 G3G4 G4G3 G3G2 G2F2 F2E2 E2D2 D2C2 C2B2 B2A2 A2A1 A1A2 A2B2 B2C2 C2D2 D2E2 E2F2 F2E2 E2D2 D2C2 C2C3 C3C4 C4C5 C5D5 D5D4 D4D3 D3C3 C3C4 C4D4 D4E4 E4F4 F4F3 F3F2 F2F1 F1F0 F0F1 F1F2 F2F3 F3F4 F4E4 E4D4 D4C4 C4B4 B4C4 C4C5 C5C4 C4C3 C3C2 C2C1 C1B1 B1B0 B0C0 C0D0 D0E0 E0F0 F0G0 G0G1 G1G2 G2G3 G3G4 G4G5 G5G4 G4G3 G3G2 G2F2 F2E2 E2D2 D2C2 C2B2 B2B3 B3B4 B4B5 B5B6 B6C6 C6D6 D6E6 E6F6 F6F5 F5G5 G5G4 G4F4 F4G4 G4G3 G3G2 G2G1 G1G0 G0F0 F0E0 E0D0 D0C0 C0C1 C1C2 C2C3 C3C4 C4C3 C3C4 C4C5 C5D5 D5E5 E5F5 F5G5 G5F5 F5F4 F4E4 E4D4 D4C4 C4C5 C5C6 C6D6 D6E6 E6E5 E5E4 E4F4 F4F3 F3F4 F4F5 F5F6 F6E6 E6D6 D6C6 C6B6 B6A6 A6A5 A5A4 A4A3 A3A2 A2A1 A1A2 A2B2 B2B1 B1B2 B2C2 C2C1 C1C0 C0D0 D0E0 E0F0 F0G0 G0G1 G1G2 G2G3 G3G4 G4G5 G5F5 F5E5 E5D5 D5C5 C5B5 B5A5 A5A6 A6B6 B6C6 C6D6 D6E6 E6E5 E5E4 E4E3 E3E2 E2F2 F2F1 F1F2 F2F3 F3G3 G3F3 F3E3 E3D3 D3C3 C3B3 B3A3 A3A4 A4A5 A5A6 A6B6 B6C6 C6D6 D6E6 E6E5 E5E4 E4E3 E3E4 E4E5 E5E6 E6D6 D6C6 C6D6 D6D5 D5D4 D4D3 D3D2"/>
    </vehicle>
    <vehicle id="15" depart="15.00">