<?xml version="1.0" encoding="UTF-8"?>
<!-- generated on 2023-03-01 04:02:31.421325 by $Id$ v1_8_0+0044-4820708f3d
  options: -n drones.net.xml -b 0 -e 60 -p 1 <doubleminus>random -i 64 -o drones.trips.xml
-->
<routes>
    <trip id="0" depart="0.00" from="N2M2" to="J0J1" via="I6I7 B12C12 I11J11 B2A2 F13F14 C9C8 G14G13 L1L2 F4G4 L6M6 D6E6 B7B8 I13I12 A2A1 B13B12 M11L11 G7G8 E1E0 L7L6 B7A7 K8J8 L4L5 B5A5 H14G14 E7E8 A1A2 B12B11 M3M4 C3B3 G1H1 H7H6 O9N9 E6E7 C8D8 L7L6 B5A5 G12F12 O2N2 J5J4 D13D12 L13L14 H6H5 L2M2 D4D3 O1N1 O1N1 B12A12 G9G10 K4J4 A3A4 K0L0 L5M5 D8E8 J9J10 J3J2 C12C11 H8I8 O1O2 D3C3 K8J8 K9L9 B6A6 M12L12 B1B2" />
    <trip id="1" depart="1.00" from="D7C7" to="B12B13" via="F13F14 K1J1 O13N13 G4F4 E9F9 M4L4 C6C7 B13C13 I2J2 D11D12 O1O2 D7D8 H13I13 K4K5 F3F2 A12A13 J1I1 O6N6 K2K1 N9N8 D9D10 E13E14 E3E4 G13H13 J14K14 M2M3 O2O1 D10D11 J7I7 D5D4 N11N10 D7E7 B13B14 J12J13 I10I9 G0F0 B11C11 C13B13 A7B7 N13M13 C2C1 K13K12 N14O14 C2C1 H2G2 F11E11 H1I1 M12M13 M3M4 I5H5 G0G1 F3G3 A5A6 J6K6 C5D5 K11K12 M1M0 D6D7 F7E7 K0K1 J9K9 B1C1 I8J8 K2L2" />
    <trip id="2" depart="2.00" from="L3L2" to="C4D4" via="N13M13 N13O13 F14E14 A9A8 N2N1 F3F2 D9D10 G1G2 L8L9 I4H4 B14A14 K8L8 H12I12 H2H3 A4A3 I13I14 O12O13 A10A11 N10N11 A6B6 G13G14 E0D0 N14O14 C4D4 J12J11 M9L9 K8L8 J8I8 A12A11 N5M5 G8G7 N11N12 M12M11 A10B10 M8N8 J2J1 G14G13 C3B3 O13N13 C8D8 D9C9 H7H6 L5L4 D12D11 C5D5 G3H3 J12J11 G12G13 I8I9 E0E1 J13I13 G5G6 H8G8 H0G0 D11D12 E1E0 C8C9 M14N14 M12L12 K1L1 M13N13 C11D11 C3C2 L14M14" />
    <trip id="3" depart="3.00" from="C5C4" to="L5K5" via="F0F1 I9H9 F9G9 D3C3 E1F1 A4B4 L2M2 I12J12 M3M2 D12D11 L5L4 J10I10 H5H4 F9E9 C9B9 G5G6 L5L4 D1D0 N11M11 E14F14 F8F7 D13D12 B14C14 A14A13 M10L10 E4F4 F13F14 K13J13 A5B5 M6M7 B3C3 M4L4 O4O5 K12J12 J12K12 F2F3 N3N4 I12J12 A12B12 C12B12 O4N4 E8F8 E7E8 K5L5 E9F9 O11N11 F12E12 H9G9 F7E7 H10H11 O13O12 D8C8 J4J3 I14J14 K9J9 M13M14 F6F5 E2F2 C7C6 L8M8 G12F12 A7A6 C10D10 O2O1" />
    <trip id="4" depart="4.00" from="M3N3" to="F1E1" via="L10K10 N3M3 M9M10 G12F12 I6I5 L0K0 J12J11 J1J2 B12B13 F13E13 F4E4 B8C8 H6I6 F0F1 E9F9 L8M8 I2I3 D3E3 I11I10 I8J8 O4O3 I8H8 F11F10 E1E0 K13L13 L5K5 C8C9 N13O13 C10C9 B1C1 I14J14 B6B5 E2E1 F0E0 K12L12 E14D14 J9K9 H10H11 H13H12 L4L5 F13E13 N6N7 D14D13 A13A14 F7F8 A5A4 C14C13 D6E6 M7M6 C12D12 J3J4 C1C0 F14E14 H12G12 F1F2 O1N1 F10E10 J0K0 D11D12 J4K4 B5C5 J11J10 M4N4 B14A14" />
    <trip id="5" depart="5.00" from="E5D5" to="M5M6" via="F4E4 K8K9 E11E12 N10O10 C8C9 H3I3 K10L10 M12M13 M14M13 N8M8 F8G8 L13L12 H5I5 K0L0 D5E5 M4M3 C10D10 A3B3 C3D3 K10L10 M11N11 D6E6 E6F6 F2G2 I8I9 N1N2 C8B8 C3D3 F6G6 K9K10 I4J4 N2M2 C6D6 D3D2 K7J7 N5N6 O11O12 G4G3 G13G12 C10C11 M1M2 D1D0 O13O12 E1F1 I10I9 N7N6 L9L8 B0C0 B5A5 H7I7 I9I10 M5N5 K7L7 B2C2 F6E6 G11G12 K7L7 D12D11 N14O14 G12G11 D14D13 G11G12 M14M13 A12A13" />
    <trip id="6" depart="6.00" from="I4I3" to="D6D7" via="E5D5 I6J6 J4I4 N8N7 G12H12 D9C9 G8F8 K13J13 C12D12 F6F5 B9A9 F9F10 I10I9 D1D2 I9I10 A7A8 H13H12 F13E13 E2D2 J13K13 E13F13 M11L11 L2K2 A1A2 E6F6 F9E9 K13K12 N10N9 G3G4 I10J10 E1F1 K2L2 D10C10 F2F3 A0A1 L0K0 O13O12 N12O12 H2G2 F4F5 B9B8 F12E12 C7C8 E10D10 J3J2 D10D9 I13I14 I11I12 A3B3 K1K0 H10H9 F4E4 F3F2 M11M10 E10E9 N13N12 E12E11 E12E13 H10G10 I10H10 H8G8 L1L0 D0D1 O12N12" />
    <trip id="7" depart="7.00" from="F2F1" to="M6L6" via="L4M4 D1D0 E1E2 G7H7 H2I2 N4M4 N11N10 K11K10 E2D2 N1O1 J3J2 A3A4 B7C7 L14K14 N10N9 G13F13 B14B13 A8B8 H8G8 L12M12 H8I8 L12L11 D0C0 F0F1 N2N1 M1M0 N14M14 N7O7 G5H5 D7C7 I4I3 J14I14 E6E7 L3M3 B7B8 M10N10 E12E13 C3C2 G1G2 A4A5 H3G3 N0N1 A2A3 N7O7 L5M5 C1D1 E6E5 E13D13 F10G10 B5B6 L12L11 N14O14 L6K6 B1B0 N14N13 F5E5 H6H5 D10D9 G7H7 M9N9 I11I10 K4K5 K5L5 L8M8" />
    <trip id="8" depart="8.00" from="K12K11" to="I3J3" via="K13K14 M1N1 K9J9 B1A1 D2E2 H12H11 L13M13 J11I11 M13L13 K11J11 J0J1 K4J4 M9M8 M7L7 H3G3 M8M9 F5F6 J7I7 G10G11 J11I11 N12O12 O10O9 J4J5 J9J8 K9J9 H10H9 M13M12 G14F14 K12L12 D5D4 J11J10 E1E0 A11B11 E13F13 N0M0 I10H10 N11N10 I1H1 H14G14 A11A12 F2E2 B5B4 F2F3 K10L10 D11C11 C8D8 M4M5 M0L0 L4M4 B10C10 L7L6 I2J2 B11C11 N6N7 J13J12 H3H2 J2J3 L5L6 F5G5 F4F5 I8J8 H2H1 K14K13 L3K3" />
    <trip id="9" depart="9.00" from="G9G8" to="O9N9" via="H4H5 L1L0 F12F13 C5B5 N12N11 J10K10 B5C5 D4E4 B12A12 M9M10 J8J9 K6K7 A8B8 O12O13 F1E1 E7F7 A8B8 G10G11 B1B2 H4H3 M13L13 K9K10 E6E7 C5C6 C9C8 L5K5 L5L4 H2G2 M0N0 B9B8 N14M14 B14A14 K10K9 E2F2 N13M13 H4I4 M11N11 L13L14 O12N12 D5D6 O11O12 N7N8 N1M1 A5A6 J10J11 M5M6 J14K14 L0L1 C9B9 F2E2 G10G9 I10H10 B1B0 D5D4 H10H11 N6N7 M7M8 J1K1 I3I4 G13H13 L1K1 A7A8 D11D10 F5F4" />
    <trip id="10" depart="10.00" from="F2F1" to="K9K10" via="N9O9 F7G7 F8F7 B6B5 L14M14 B11A11 L11L12 F10F11 F12F11 N0O0 G2F2 B1C1 B8B9 I10J10 A11A10 G9G8 M6M5 E7E6 F7E7 E9F9 I12I13 J8J9 C12D12 F9F8 D6D5 O0N0 C12D12 B8B7 G12H12 M3M2 F7F8 I3I4 L8K8 G12F12 A10A11 G12H12 H3G3 J8K8 N13M13 J1I1 L12L13 K5K6 E10E11 N12O12 M11M12 G6H6 H1I1 L9L10 D10D11 K9K8 M6L6 F5F6 N8N7 O14O13 F5F4 D2D1 D12E12 O4O5 F7F8 G12F12 H3H4 H2G2 D12D13 I5I4" />
    <trip id="11" depart="11.00" from="J1J2" to="C12C11" via="C9B9 B4B3 N8N9 J11K11 L2M2 L2L1 F12G12 M14N14 H14G14 K7L7 A0A1 L0K0 B4A4 L8L9 K6L6 F7E7 J13J12 A3B3 B1C1 E1D1 I4I3 E4E5 M6L6 H10H9 K3J3 B6A6 F1F0 H10H9 H4I4 D5E5 B9C9 K14K13 H11H10 C11C10 B3C3 N10N11 L9M9 F3G3 G9H9 E11E10 B7C7 O7N7 I10I11 G6F6 K11K12 M0M1 L8L9 E9E8 B14C14 L0L1 H2H1 N11M11 E1D1 K5J5 C4D4 E14F14 F3G3 I6I5 J10K10 H13H14 A8A9 I10H10 F10E10 B7B6" />
    <trip id="12" depart="12.00" from="C10C9" to="C7D7" via="N7N6 B4C4 M11M12 D0E0 D8D7 H9H8 L4K4 K7L7 A12A13 B4B5 A3A4 D10E10 C7D7 C10D10 G2H2 D5D4 E1E2 E11D11 M12M13 M6N6 D3D2 L3M3 D10D11 I2J2 N11N12 M5N5 K0J0 G10G11 F8G8 N0O0 L7M7 N10N9 L14M14 O9N9 F12E12 L7L6 H5I5 M3M4 B8C8 D10D11 G12G11 C7D7 G3G2 N11O11 O8O9 A10A11 G7H7 H14G14 K13L13 J9J10 K7K6 I10H10 I3I4 J7J8 O1O2 C5B5 B7A7 L9L10 L7L6 E8D8 O10O9 K5L5 H7G7 J9J10" />
    <trip id="13" depart="13.00" from="G6F6" to="F12G12" via="H8G8 A11B11 F6G6 E0F0 D6E6 J13I13 B5C5 I6I5 K10K9 I8J8 B7B6 A0B0 A8A9 N10O10 L2K2 C13B13 L10L11 G0H0 H13G13 I7H7 E5E4 I2I1 C12C11 E14F14 M13L13 O1O2 K12K13 G7G8 E3E4 H10H11 D8E8 M5N5 A4A5 C7B7 O0N0 N1N0 M9M8 C12D12 I4H4 G3G2 D12D11 M0M1 J10J11 C13C12 A11A10 H0G0 K8L8 A13A14 F3G3 F8F7 I9H9 L13K13 N2N1 L1M1 D13C13 E7E8 K2L2 K7K6 I10H10 G4F4 D10D9 H6H5 M9N9 F4E4" />
    <trip id="14" depart="14.00" from="K3K2" to="J3J2" via="F12G12 O12O11 L4M4 E14F14 M5M4 H4I4 C7C8 A7A6 G2H2 D5D4 K0J0 L7M7 M5N5 D12D11 M14M13 L8L7 L12L11 J12J11 M2L2 E13F13 J14J13 C14B14 E9F9 G1G0 D6E6 K11K12 C8B8 M5L5 D8D9 L3M3 N5N6 A1A2 C3D3 K12J12 I11J11 I12I11 F2F1 G4G3 L11K11 E0E1 O6O5 B1A1 G5G4 B12B13 O1O0 H9I9 O2O3 K8K7 N0M0 E11F11 K10K9 M0N0 N7O7 I0J0 G12G11 K5K4 N1O1 A2A1 H13I13 A12A11 H13I13 B2A2 O7O8 L0M0" />
    <trip id="15" depart="15.00" from="O12O13" to="L7M7" via="I2I3 H11H10 O13O12 I5H5 B9B10 N7N6 B12B11 K9L9 K14J14 I5I6 M5N5 A13A12 J0J1 J10K10 I2J2 F13G13 G3G4 K2L2 L1L2 M8M7 F9E9 F14E14 K10L10 E0E1 A8B8 I2I3 G12G11 C13C14 B12B11 N6N5 E14E13 A1A0 N11N10 J9J8 O11O12 D3E3 F8E8 B8B7 O8O7 C5C6 J6J5 L5K5 J9J10 I4I3 F1E1 N11M11 C6C7 F2F3 B9A9 N6M6 B3B4 B2B1 C13C12 I2H2 I10H10 J7K7 C9D9 L1L0 M6N6 A10B10 H1H0 C5C4 F11F10 I4H4" />
    <trip id="16" depart="16.00" from="A6B6" to="K1J1" via="N5M5 H9H8 G1H1 H5I5 L4L3 H12G12 E3E4 D14E14 L2M2 G8G9 N4M4 D13D14 M7M6 I13J13 K8K9 K0K1 M1N1 I6J6 F10E10 G7G8 I14J14 O2O1 F8F9 G11H11 O9N9 M12N12 E10E11 D11D12 B13B14 J9J10 D1C1 K14J14 J6K6 M10M11 F8F9 D6C6 H4I4 L13L12 M5M4 H7H8 A5A6 I9H9 D4D3 E5F5 A1A0 E10F10 D4C4 J8K8 C8B8 L14L13 B11C11 I2I1 E6D6 N14M14 G13G12 C4B4 G12F12 B11C11 N12M12 A4A5 B12C12 B7A7 A0A1 L3L4" />
    <trip id="17" depart="17.00" from="B13A13" to="M3L3" via="M11N11 F0G0 A3A4 G7G6 I11I12 H8I8 A0A1 B11A11 B2C2 M1N1 D5C5 J1I1 A5A4 M13M12 G0F0 L11K11 K8L8 K8J8 K11K10 N4M4 J11J10 J5I5 L11L12 A10A9 G9F9 N7M7 K12K11 C5C6 J2I2 C10C11 F6E6 F7E7 C11C10 J10J9 L7L6 N2M2 G7H7 C2B2 B6B7 H14G14 D14C14 K5J5 M14N14 A12A11 B7B6 D11C11 N14O14 B14A14 C13C12 G9G8 J11I11 K7K8 C14D14 H2G2 M4N4 D2D1 E4F4 I6I5 L4L5 M8M7 B12C12 F1F2 A14A13 E13D13" />
    <trip id="18" depart="18.00" from="A3B3" to="F11G11" via="L7L8 N14O14 D0C0 O4N4 D4D3 F14G14 J4J3 D14C14 D11D10 O2N2 N12O12 A11B11 I2I3 I7I6 I0H0 L3L4 O6N6 B2C2 M8L8 E8E7 N7O7 K3J3 E7F7 B8B7 C10C9 O13N13 N12O12 F8F9 F11G11 B11B12 B12B11 E13D13 L11L10 I3I4 J1I1 O13O14 G4G3 N8M8 C8C7 D2D1 L2L1 L1L0 D8E8 L0M0 L9L8 J12I12 J7J8 J4K4 O2N2 K12J12 O2N2 F10F11 M14N14 F14F13 L8K8 M1L1 J8J7 A1A2 J3I3 I7H7 E10E11 J4I4 G1H1 A3B3" />
    <trip id="19" depart="19.00" from="C4D4" to="A13A12" via="B9C9 L12L13 D1C1 M14N14 L11L10 F7F6 M10M9 N12M12 F13E13 G2G1 E9F9 C10C9 N1O1 N11O11 M13M12 D2D3 N1N0 D0D1 B2B1 B5C5 E0F0 O10O11 J13I13 C8C7 K8J8 K10L10 D2D3 D8D9 E6F6 E8F8 H10H11 K12J12 M9N9 K13L13 E13E14 N2N3 E5E4 N3M3 I3I4 N10N9 E2E3 G8F8 F7E7 F3F4 E1D1 K4K3 E2E3 G5G6 L12L13 L8M8 K2J2 G10H10 J11K11 E7D7 F11F10 A4A3 N10O10 N6N5 J13I13 G0H0 G0G1 J2J3 F7E7 G3G4" />
    <trip id="20" depart="20.00" from="A5A6" to="E11E12" via="G2G1 L3L4 A7B7 J5I5 H14G14 L7K7 N7O7 L3L2 K2L2 A14A13 M2N2 M6N6 M12M13 M11N11 H5H6 E14E13 A8A7 O0N0 N1O1 O1N1 F2F1 N10O10 O3O4 I13H13 J8J7 D13D14 E6E5 N11N10 D1D0 I7H7 L6M6 I13H13 A10A11 C12C13 C0D0 B9B8 J5I5 F14E14 O7O6 J0K0 F1F2 M10N10 C4C5 E10F10 D0C0 H13G13 J1J0 D3E3 I13I12 A8A7 F1G1 E7D7 K3J3 M3L3 M9L9 D4D5 K7K6 O4N4 A4A3 H10H9 D6E6 M9L9 H5G5 J6J5" />
    <trip id="21" depart="21.00" from="B10B11" to="F1E1" via="D13D12 G12H12 E1E0 A4A3 B3B2 I7J7 E8F8 E13E12 M5N5 B3B4 K4K3 C1D1 H4H5 K11K12 O2O3 L12M12 G5H5 M9N9 L9L10 M11M10 J13K13 L12M12 F6E6 M5M4 A10A11 N12O12 L11L10 D7D6 F0F1 L0K0 H9H8 F6F5 I9I8 O7N7 H9H8 I2H2 H1I1 L11L10 J9J8 J6K6 F11F12 L6L5 G12G13 B1B2 I12I13 H4G4 L5K5 E10F10 C7C8 E1F1 K5L5 K12K11 O3O2 O11O12 G11H11 L0L1 D4C4 K12K11 M7N7 F8F7 N1N0 C4C3 D12E12 H14H13" />
    <trip id="22" depart="22.00" from="N11N12" to="D4E4" via="G12F12 C4B4 F8F9 H9H8 J3J4 F2G2 B6A6 B1B0 L8K8 L6M6 B12B13 B14C14 L7K7 O6O5 D4C4 A2A1 O14O13 J6K6 A11B11 C4C3 J2J3 G2G3 I6J6 C12B12 L5L4 K8L8 K12K13 J6J7 G2H2 D2C2 K2L2 H1H2 D4D3 B10B11 D12E12 G2G1 C5B5 F5F6 I2I3 B5C5 C2C1 H13H12 L4K4 C13C12 G10G11 N5N6 H2G2 M9N9 E5F5 O3O4 K1L1 H12I12 F0E0 G11H11 G13F13 F13F14 E14D14 B10A10 O13N13 L12M12 A13B13 N6N7 I13I12 C14C13" />
    <trip id="23" depart="23.00" from="E12F12" to="C3D3" via="G10G9 M3L3 H8H7 L5K5 I7J7 B8C8 O1O2 F13F12 I6H6 I13I12 D14D13 N13N12 G2H2 D11D12 G12G11 C2D2 G5G4 H3H2 I10I11 E4E5 G10F10 G0G1 I3I2 A5B5 J9K9 B9A9 N0N1 M9L9 H7H8 B14B13 N11N10 C10C11 B4A4 L8L9 O9O10 N7M7 E7F7 C6C5 I2I3 E2E3 F8F9 I7I8 L13L14 H5H6 I1I2 K7L7 A8A7 L3L2 J9K9 O11O12 B11B12 C14B14 L4L5 G2G3 F6F7 K6J6 M7M6 C9D9 J14K14 D11D12 A7B7 M0N0 H13H14 B14B13" />
    <trip id="24" depart="24.00" from="J2J1" to="D1E1" via="M10L10 F7G7 C6C5 K1J1 O5O6 F13G13 G2G1 G13G14 J2J3 M6M5 B0B1 M0M1 C14D14 A12A11 E12E13 H7I7 A10A9 M3M2 I11H11 N11N10 G6F6 C10C9 K4L4 N14N13 K8K7 O4N4 O5N5 E1F1 L4L3 H10I10 D1C1 I6I5 F10F9 K10J10 M2L2 I1H1 L10L11 D13E13 G8G7 C10C9 I1I0 E9E8 I0I1 H12I12 L10M10 K6L6 I6J6 J8J7 G1G0 B4B3 N11N12 I8H8 F7F6 E14F14 C7D7 I2I1 M0N0 N12O12 O11O12 E12E11 F7F8 M9M10 G4G5 M8M7" />
    <trip id="25" depart="25.00" from="O0N0" to="J3I3" via="A7B7 F4E4 N6M6 L14K14 J2J3 L7K7 L6M6 F3G3 A4B4 M3L3 C11B11 O6O7 H4H3 B12C12 I9J9 C11C10 H10I10 M4M5 L2M2 C7C8 K5L5 F8G8 I11H11 I12I11 J1J0 H5H6 O10O9 N4N3 D4D3 C4B4 C0C1 M7L7 J2J3 B5B6 L3M3 G1F1 E5E6 B5B4 J11K11 O1O0 B6B5 A4A3 F5E5 O2N2 I6I7 G7H7 G9G10 O10O9 B14A14 J6J7 E8F8 C13C12 N13N14 H12H13 K13L13 B5C5 J14J13 A11A12 J11I11 F14F13 D8D7 L13L12 F7F8 F10E10" />
    <trip id="26" depart="26.00" from="A9A10" to="D1E1" via="H14G14 H6I6 F4E4 B5A5 A7A8 M7L7 D11C11 I11I12 L10L9 E2F2 D5D4 J4J3 I14I13 C6B6 L2L1 J6K6 M14L14 N4O4 H6G6 M8N8 D4E4 C12C11 H14I14 N11O11 L12L11 N5O5 J13J12 H8H7 O11O10 A7B7 F10F11 O12N12 B9C9 O14O13 N2O2 D3C3 E0E1 C1C2 F4G4 C2D2 B10C10 N0O0 M12L12 C13D13 D14E14 H13I13 D8D7 H14G14 B1B2 O11O10 E14E13 N13M13 F7G7 J0K0 B8A8 B7A7 M2L2 J13I13 M11M12 B13B14 L8M8 E9E10 C10C11 K9L9" />
    <trip id="27" depart="27.00" from="L10L9" to="K6K7" via="G0F0 D4D3 D14E14 D7E7 A0B0 F7E7 O0O1 B10B11 C8D8 C4D4 I1H1 G5G6 E10D10 G6G5 I1I2 H5I5 J1J0 E7E6 D9D8 H2H3 G7F7 B8B7 G9F9 O12O11 M6N6 I9I10 D12C12 H0G0 D13D12 O5O6 H13G13 G12H12 F9F10 H8H9 D9C9 I6H6 I14I13 E7D7 K13J13 A3B3 F0G0 M9N9 G10G11 J14I14 C4B4 I8J8 E3E2 B1A1 G14H14 L5L4 G7G6 I9I10 K0K1 F4G4 I1I0 N5N4 K3J3 C1D1 M4M3 H8H7 C8C7 I3J3 K5K6 C10B10" />
    <trip id="28" depart="28.00" from="I13H13" to="I0I1" via="E10F10 F9G9 C6D6 I7J7 B4C4 D11C11 N7N6 D2C2 E8E9 I0I1 K9K8 L3M3 H7H8 H6H5 A13B13 C14D14 H7H8 D14D13 E14D14 C3B3 D4D5 F10E10 N13M13 N12M12 H3I3 B7B6 E9E8 E14D14 D12E12 K2J2 F1F0 K9L9 A8B8 N13O13 O1O0 O1O2 K4J4 K7L7 C1C2 J2I2 K3K4 J14J13 C9C10 L13L12 B12C12 C13B13 I4H4 E4E5 N4N5 J1K1 M1M2 I4I5 L14M14 O3O2 L9K9 C10B10 N12O12 L1K1 I1I0 H12G12 I2I1 G3G4 B2B1 E11E10" />
    <trip id="29" depart="29.00" from="G2H2" to="B5A5" via="C5C4 B6B5 O2O3 E1E0 D2E2 M9M8 L13L14 E8E9 O1O0 J1I1 J8J7 I1I0 J3K3 L12L13 M6M7 C14B14 E7D7 D7E7 N4O4 L5L4 A11A12 J7J6 M6N6 N7O7 D0C0 I11H11 K6J6 F11F12 K6L6 L11M11 F3E3 I3H3 L0M0 B2B3 L9L10 N12N11 H3H4 G8F8 L2L3 H9G9 F1F0 L6K6 K14K13 E11E12 E4F4 A11B11 E10D10 O11O10 N8N9 B1B0 I10J10 B10B9 G14G13 O10N10 J5K5 D6D7 M9M10 C2B2 B12B13 C3D3 D2E2 E14D14 E13E12 J10J9" />
    <trip id="30" depart="30.00" from="N13O13" to="I3I4" via="L5M5 I1I2 G11H11 C6C7 N5N4 M7M6 K2L2 G5G6 N13N14 J9J8 G1G2 A4A5 E12F12 M8M7 G11F11 A13B13 J10I10 E10E11 G10F10 M13L13 D0E0 C2D2 L10K10 G13G14 K12L12 A9B9 J12K12 F0E0 C4D4 N9M9 O11O12 K5K4 N3M3 C5B5 J0J1 F8G8 B2B3 J8I8 B3B4 C2D2 B7A7 F9F8 G12H12 K0K1 J8J9 A12B12 M8M9 G13H13 J1J0 L11M11 M14N14 N13O13 D12D11 G2G1 F13F14 C12C13 M1N1 J11J12 M1N1 E8E9 F12F11 F13F14 H10H11 H1H0" />
    <trip id="31" depart="31.00" from="O1O2" to="K4K3" via="A6B6 A4A5 M5N5 G9G10 O8N8 F11F12 L5M5 H14G14 D11C11 D14D13 C0C1 A0B0 L8K8 C11B11 M3M2 E4E3 I0H0 L6M6 K5J5 H12H11 O9O8 D2D1 H2H3 F10G10 N11N12 F10G10 N14N13 K9L9 J7K7 K2K1 L4K4 H4H5 N6N5 K4K5 A6A7 E7D7 J7J6 K3J3 L7L6 O11O12 M2N2 H14G14 I8H8 B11B12 A5A4 J14J13 I11H11 C9C10 C10D10 K8K9 H1G1 A7A6 J11J10 C0D0 H14I14 E9E10 B7A7 D4D5 L14K14 I8J8 B5B4 H13G13 J2J1 D3D2" />
    <trip id="32" depart="32.00" from="L14M14" to="G10H10" via="D7D6 L6M6 E12F12 H2H1 J8K8 H14G14 M12N12 C13D13 A10B10 H9I9 M5M4 A0A1 O4O3 F8G8 K12L12 D4D3 E2E1 I11I12 E11F11 D5D6 D2E2 L7K7 N0M0 L13K13 H3G3 B6C6 E10E11 I11J11 G8H8 D1E1 E5D5 O5O6 N1N2 O2N2 B14B13 E2D2 H3H2 N7N8 H7H8 N10O10 O5O4 N12O12 G13F13 H11H10 J10J9 F12F11 E13E14 M11M12 K8K7 M13N13 I2I1 O10O9 H6H7 K5K6 E7E6 B4B3 I7I8 O12N12 I6I5 N12O12 C2B2 A7A6 G2F2 O14O13" />
    <trip id="33" depart="33.00" from="H13I13" to="I12I11" via="H3H4 C4D4 A2A1 D4D5 J9J8 H14I14 J3J2 H10H11 D6D5 E4E3 N12N11 G9H9 E9F9 B11B10 C13B13 L2M2 K3K2 J11I11 G1F1 C9C8 M9L9 E6E7 E7D7 L4L3 G4H4 K6L6 I11I12 E8D8 A13B13 E13D13 A1A2 C3B3 D2D1 L6M6 B8B7 G9G10 B13C13 J4J5 B12B13 M2M3 I10I9 C5D5 I11J11 E2E3 G10F10 H7H6 M13M14 A4A5 I13I12 G1G2 I13J13 J10J9 H13G13 F7F6 E12E13 N14O14 M10L10 A12A13 H3G3 K10K11 I2H2 D14C14 M8M7 F3F4" />
    <trip id="34" depart="34.00" from="M4M3" to="C11D11" via="J14I14 F13E13 G12H12 C1C0 C4B4 I5J5 F11F10 A8A9 G0G1 G5G6 J3K3 M10N10 N13N14 C6C5 A10A11 M1M2 A5B5 J8J9 E2E1 F3G3 L2M2 E0F0 D12D13 I13H13 I1H1 F0E0 C3C4 L14K14 I1H1 B14A14 M7M6 I11I12 L9K9 E4E3 D9E9 J11K11 I11I12 G5G4 C6D6 N2O2 N13M13 C0C1 N12N11 B6B5 B11B12 G5G6 G5F5 K13K12 L10L11 N10M10 E14F14 N6O6 D10D9 L3L2 B3A3 I5I4 C2D2 A4A3 C6D6 M4M5 B4B3 F8F9 J5I5 I13J13" />
    <trip id="35" depart="35.00" from="F10F9" to="G10G11" via="J12I12 L8L7 N8N9 E4E3 G13H13 N6N7 B3B4 B9B10 N0O0 G5G6 I5I6 C10C9 F10G10 C8C7 C3C2 G7H7 J6K6 M12L12 K11K12 C9C10 L1L0 A7B7 D4E4 K10K11 N4M4 F3G3 D9E9 G3G4 C12D12 N3O3 K2J2 H4I4 J6J7 B3C3 B4C4 E5F5 H0G0 J2J3 F13G13 G13H13 D7E7 C9B9 J3I3 E5F5 D6C6 J6I6 L7L6 K6K7 J3K3 O10N10 E13E12 B1A1 K8K7 G13G14 O5O4 H14H13 D8E8 K7K8 J1J2 L2L3 I4I3 D13E13 B9B8 J5I5" />
    <trip id="36" depart="36.00" from="L3K3" to="H13I13" via="G3F3 L9K9 D0C0 K2K3 G7G8 E6E7 J10I10 N0M0 E7D7 I12I11 M0M1 F2F3 B11A11 L10L9 F4F5 I4J4 C5C6 J0I0 G2G1 L14L13 O0O1 G8G9 F9E9 K7K6 J4J3 O11N11 J14K14 O12N12 K0J0 E4E3 B5A5 H4G4 F14E14 N11M11 L8M8 I4I3 M6L6 I13J13 B14B13 N10N9 O9O10 N1N2 J14J13 G9G8 E4E3 I2I1 C1C2 I1H1 I11J11 L9L8 H2H1 E13E14 O9O10 M3M4 D9E9 F3F4 K1K0 K11K10 N13N12 K0L0 B1B2 E9E10 O11O10 J4K4" />
    <trip id="37" depart="37.00" from="I7I8" to="C2B2" via="B0A0 D9C9 K2K1 L0K0 E6E5 F12F11 H11I11 I1J1 C11C12 H11I11 N10N9 I11I10 M3N3 I7I8 I6I5 B4B5 M13M14 K6J6 J9J8 N7O7 F13G13 D10E10 M7L7 F8F9 K7L7 K14J14 A10A9 H10H9 K5J5 C12D12 A1A0 L11L10 K9L9 J5K5 C2C3 C0B0 A0A1 A5A4 M4N4 L12L11 N11N12 M5L5 N10M10 I6I5 L4L5 M11N11 C12B12 K11K10 D7D8 F2G2 G5F5 E10F10 D7D8 I8I9 M7N7 A2B2 N14M14 G1F1 A2A1 O4O5 K10L10 O5O6 I2J2 J1I1" />
    <trip id="38" depart="38.00" from="K6L6" to="G10F10" via="B3B2 E8E7 J13K13 O6N6 M10M9 J3K3 L4M4 C1B1 M0N0 H8I8 K12K13 G4G3 G2F2 L7K7 I2J2 C8B8 E2D2 D10C10 B14C14 G3H3 I7I6 M7N7 D0C0 B5B6 A3B3 E5E4 I1I0 K7L7 H6G6 J11K11 K12L12 L13M13 H9H10 H9H8 L9M9 F13F14 B10C10 N11M11 E13D13 C7B7 N12M12 I4I5 D5D4 N13N14 F3E3 G11H11 I6H6 N11O11 M10M11 A8B8 J9I9 G1G0 E0E1 F8F9 A4A3 E8F8 F11G11 M9L9 O3O2 O9O8 J2J3 B0A0 B5A5 D12D13" />
    <trip id="39" depart="39.00" from="F11F12" to="B14A14" via="O2N2 C6C5 F10F9 A9A10 L2M2 K5K4 F14F13 H8G8 H7G7 N14O14 D10C10 K10K11 K2K3 H9H10 M10N10 I1J1 C9B9 L9L8 D10D9 M10L10 G4G3 M5M4 J9I9 C9C10 E3E4 M10N10 D12C12 L2K2 C10D10 O10N10 L11M11 M3L3 E2D2 F6F5 L10M10 C1C0 M11M10 C4D4 F3E3 M11M12 H6I6 M7M6 N6O6 E11E12 A8A9 H11H12 G0H0 J1K1 O10O9 M12N12 M5L5 C8C7 F1G1 M11M12 G13G12 E0E1 H0H1 M0L0 B1B2 I1J1 B8C8 G0H0 J3J4 N12O12" />
    <trip id="40" depart="40.00" from="K5K4" to="K3L3" via="F7F6 A13A14 J6J5 N1O1 H12H11 K5K4 B9B8 H9H8 F8F7 I14H14 C1C0 I10J10 C12D12 I11H11 G12H12 E9D9 H14G14 A1B1 M14N14 F8G8 N3N4 C8B8 M3N3 K6J6 G6H6 F1G1 K3J3 M0L0 O7O8 D4E4 J2K2 H3H4 C6D6 E1D1 E12E11 N0N1 K2K3 D4D5 C11C12 L2L1 H4H5 K9K10 L9L10 K10K11 J7J6 M1L1 J9K9 L3L4 G5G6 I2J2 E14D14 K8K7 F10E10 I13H13 H10I10 G7G8 N12N11 K10K9 C9C8 A3A2 C11C10 L13L14 C0D0 K5L5" />
    <trip id="41" depart="41.00" from="G3G2" to="I5H5" via="C2C3 L4K4 H6G6 B9A9 H5G5 B7B8 O12O11 B0B1 K4L4 B4A4 H4I4 E8E9 B9B10 G13G14 A12B12 M7L7 B2B3 E5E4 L10L11 B2B3 O1N1 I11J11 H11I11 H12H13 F11F10 G5G4 E2F2 J4J3 A6A7 L6M6 G11H11 I5I4 O0O1 B10C10 E3F3 B13B14 L1L0 G1G2 B8C8 N5M5 G1G0 B12C12 M5N5 A4A3 L12L11 B8C8 E6F6 F1F0 B1A1 H0G0 I0I1 H7H8 F12G12 J8J7 D9E9 J2J3 M5M4 C7C6 G9G8 F7E7 K4K3 G13G12 H5H4 A8A9" />
    <trip id="42" depart="42.00" from="H10I10" to="F2F3" via="J6J7 B3C3 L6M6 M11M10 J3K3 N6N7 K14J14 D4D3 B5A5 C3D3 O5O6 M10N10 M4M5 I3I4 H1H0 K1K0 C4B4 F5E5 I2I1 E12E13 A6B6 I3I4 A1A0 I4I3 A9B9 K12L12 E2E1 B12C12 H10G10 E13E12 J7K7 M12M11 N7O7 K2K3 J14K14 C9C10 J8J7 D10D11 D14C14 E7E8 D9D10 M8N8 E1D1 O10O11 A10B10 H0H1 F1F0 L6L5 D5E5 B7A7 N3N4 G0G1 M7N7 O3O2 M14M13 I10I11 K9K8 K13L13 D4D5 H10I10 N0N1 I10I9 I2H2 M4M5" />
    <trip id="43" depart="43.00" from="E11E12" to="A11A12" via="O13N13 M3M2 L12M12 F1E1 A1A0 M9L9 G6H6 J8J9 A11B11 H3H4 M7M8 E1F1 K8L8 N4N5 D8C8 I8I9 B11C11 C11D11 H5I5 L1L2 B8B9 J0I0 H14I14 I1I2 E0D0 O5O6 F7E7 H14H13 L3K3 D3C3 D6D7 L13L14 D3E3 M6N6 J4I4 G13F13 L7K7 H3G3 I6I7 J1J0 I10J10 I9I8 D11D10 B6B5 E6E5 O6O7 B9B10 B5A5 J10J9 M11M12 K11K10 K7J7 D10C10 E0F0 E14E13 D9D10 F14G14 D11E11 E5D5 D9E9 F4F5 B8A8 M3M4 I4J4" />
    <trip id="44" depart="44.00" from="N7M7" to="G4G3" via="I3H3 G6G5 J13K13 C0B0 H2I2 M6L6 J4K4 C12C11 D10D9 J1J0 C6B6 M1M2 D4E4 O9O8 O14N14 F13F12 O1N1 D4C4 N2O2 C5D5 F4F5 A12B12 I0I1 G12G11 G5G6 D10D11 B8A8 E14D14 K11L11 K12J12 D10D9 G11G12 N3M3 G5F5 K8K7 G13G14 O7O6 G1G2 K8K7 O4O5 I0I1 I3I2 I0I1 K2K3 L4L5 M8L8 B2A2 C14B14 H3G3 N5M5 C11C10 C12D12 F7G7 E7E6 L3L4 C0C1 I7H7 D14E14 J8I8 F9F10 B7C7 I6I5 I10H10 K7J7" />
    <trip id="45" depart="45.00" from="L2M2" to="B13A13" via="F9G9 M12L12 G12F12 I1H1 K2J2 B10A10 A9A8 L8K8 O4O5 M11M10 A5A6 O11N11 A13B13 C10C9 D3E3 G6G7 L3L2 I14J14 K13L13 H3G3 D2D3 N3N2 C7D7 C6C5 N11O11 E12E13 D1D2 G12G11 F7F6 L1M1 G5G4 E4F4 D2D3 L12L13 E0D0 E5D5 D8E8 B10B9 I6I7 M3N3 N5O5 M0N0 I7I6 J3I3 O9O10 J11K11 G3G2 D14E14 K14L14 L7K7 M12M13 N6O6 D7E7 D12D13 I14I13 H10I10 I0H0 C14C13 I8I7 K3K2 A14A13 G4F4 G12G13 C14B14" />
    <trip id="46" depart="46.00" from="B9B10" to="F8F7" via="N6O6 B1A1 O5O6 N10O10 K12L12 K4L4 F11F12 A9B9 C14B14 B10B9 J3K3 B4B5 O6O5 M12M13 K12K13 H4H5 B6B7 J5J6 F5E5 L1L0 H2I2 D5D4 K5K4 F9G9 M7M6 G2G3 H11H12 H7G7 H6H5 B3B4 C10C11 A2A3 G0H0 H10H9 D5E5 C0B0 L8M8 A3B3 C3B3 D7D6 E14D14 K12J12 H6G6 N8M8 H3H4 L6L5 D5D4 B8A8 K7J7 J1J2 L6L7 H4H5 K9K8 I10I9 H8I8 B0B1 A13A14 D8C8 B7A7 L5L6 N3N4 G4G3 I13I12 J10I10" />
    <trip id="47" depart="47.00" from="H5H6" to="L12K12" via="B6B7 K3K4 I1I2 D1D0 J4I4 D13D14 D12D11 L14M14 B1A1 C9D9 N9O9 D12E12 L3L2 I5J5 D7D8 N5N6 O3O2 M14L14 K10K9 F10G10 E3F3 K10J10 C4C3 I0J0 O3O2 A11B11 F8G8 I11I12 J1K1 H14G14 L4K4 O3O2 B9B8 H7G7 B11A11 C11C10 I14I13 G6H6 C9C8 O7O6 A14B14 B9A9 J4I4 I1I2 I13I12 L11K11 I8I7 M4L4 A7A6 G6G5 K3J3 D13D14 F4F5 H13H14 L2M2 E3E4 H9H10 M8L8 J2I2 M10M9 D7D8 E10F10 N0M0 L8L7" />
    <trip id="48" depart="48.00" from="K6L6" to="O10N10" via="A1A0 L0M0 M8M9 H14G14 A10A11 M6L6 H5G5 B14A14 C14D14 F2G2 L9L10 B4B5 L13L12 C6C5 B7B6 L4L5 I2J2 N11N10 F12F11 G4F4 K12K11 O7O8 N1N0 C1C2 E7E8 K8K7 B4B5 E12D12 J4J3 G5F5 J10J11 M1M0 B7B6 J4K4 I8I7 F9F10 O9O8 B10B9 D3E3 D9C9 N0O0 H5H4 E9F9 F4F5 L13M13 M11N11 K1L1 J11J10 L10M10 D2C2 C9C10 H12H11 M10N10 L11K11 I10H10 C2D2 F2F3 H3I3 D7C7 C1C2 F3F2 B5A5 H9H10 N11N12" />
    <trip id="49" depart="49.00" from="H4I4" to="I10H10" via="K12L12 J6J5 A11A10 K1J1 E10E11 I14I13 J8J7 H13H14 G12G11 H9H10 A1A0 C7C6 I0H0 L0K0 C9C10 E8D8 J1K1 B6A6 N14M14 I2I1 J6J7 J8I8 N4M4 I2I1 B9A9 H2H3 L5K5 J3J4 N8N7 E10D10 H11G11 B14B13 C12C11 J10I10 K3K2 E8D8 H3H4 M6M5 M12N12 B9C9 O5N5 J2I2 E14F14 M8N8 L1K1 K0L0 G6H6 B8A8 M7M8 K2K3 A8B8 N1N0 A13A12 H9H10 M1M2 N3O3 J13I13 J9J8 M8M9 B13C13 F12E12 I11I12 N14M14 D12C12" />
    <trip id="50" depart="50.00" from="L3M3" to="I13J13" via="O7O6 F7G7 C2B2 G14H14 G8F8 I8J8 C2C1 E4F4 I5H5 N10N11 B1C1 B1A1 N7N6 F5F6 C1C0 E7F7 E13E12 D9E9 J9K9 K7K8 C2D2 D11C11 E11E10 A8B8 J2I2 H3I3 K4J4 A13A12 H7H6 A8A9 N13M13 B8B9 C0B0 K1K0 A9B9 I3I4 J2J1 G14F14 I4I5 I6H6 E3F3 J11I11 H3G3 E5D5 B13C13 N14O14 L13M13 J7K7 O12O11 N4M4 M3M2 G14F14 C2C1 K13K14 F5F6 F4E4 D13D12 M14N14 G3F3 L13L14 B10A10 A4A5 G12F12 B6A6" />
    <trip id="51" depart="51.00" from="G6G5" to="I0H0" via="J4K4 L3K3 N9N8 B4C4 H13G13 D5C5 N0N1 K7K6 O5O6 N10N11 M12M13 M8M7 D6D5 D14C14 N8M8 D13D14 I0J0 F6F5 H7H6 D13C13 B2A2 H12G12 A6A5 I1H1 H5I5 F1F0 J13J14 A13A14 C9D9 J3J4 E13D13 E12F12 M10M9 G5F5 F5E5 D14D13 N9N8 H12G12 H4H3 L3L4 J5J6 L3K3 H3G3 A4A5 H9H10 K10J10 F8F7 O13O12 I12H12 G13H13 A14B14 D3C3 K10K11 A3B3 O10O11 H13H12 K4K3 A5A4 J7K7 M8L8 E10F10 K1K0 F13G13 K12K13" />
    <trip id="52" depart="52.00" from="H4I4" to="E6F6" via="I0J0 J0K0 F10F9 L8L7 A9B9 B11B12 E13D13 E1F1 N9M9 G1F1 H4G4 M1M0 H7I7 C2C3 O10N10 N4N5 D9D10 E13F13 G10G11 F7F8 E14D14 L11L12 E2E3 G1F1 B7C7 M4N4 G2G1 M3L3 C4B4 I1J1 N7N8 B4C4 B5B6 M6M7 L7L8 F7G7 E8E9 C3C2 E12F12 K11K10 L4L3 A14B14 A5B5 M5L5 J13I13 L6L7 K0K1 I13I12 C7B7 I8I7 K0J0 D12E12 N7N8 H6H5 M6L6 G0G1 J2I2 H14H13 A12A11 H5H4 M10M9 N12M12 B1A1 N3N2" />
    <trip id="53" depart="53.00" from="I0H0" to="H7I7" via="H8G8 L13L14 J4I4 C10C11 E3D3 N8N9 B4B3 I12I13 C1D1 K13J13 F10E10 L3M3 K4J4 D8D7 G3G4 E10E11 O8N8 C0D0 B11B12 E0F0 I11I12 D11D12 J9K9 I7I8 J6J5 H12H11 K3J3 N4O4 D4D3 B12C12 C2C3 B4C4 C7D7 I5I6 L13L14 K5J5 G3G4 L5K5 M7M8 H0G0 K11J11 C2C3 G5G6 F14F13 F11E11 G7G8 M6M7 K0J0 M11N11 F6E6 F7E7 O7O8 C1C0 K1K0 C13D13 N8N9 N12N11 L12L13 C8B8 I11I10 G0F0 M7L7 A5A6 I9I8" />
    <trip id="54" depart="54.00" from="L8K8" to="H11H10" via="K2J2 D13C13 K8L8 G7G6 N3O3 L0L1 O3O2 I5I4 H12G12 H12H11 L9L10 L11L10 M12L12 A6B6 H10H11 L4K4 D8D9 I6J6 J14J13 I5I6 L14K14 L4K4 M10M11 L8K8 I9H9 O13O14 L8L7 H12H13 I12I13 O12O11 N3N4 H9I9 G2G3 B0B1 C1C2 K6K7 M7M8 G10G11 N5N6 N5N6 H10I10 K8J8 D4C4 F0E0 L13L14 J12K12 I12J12 H4G4 F6F5 J7J6 A9B9 H7H8 M1L1 B0B1 D13E13 E7F7 K5L5 D6D5 M5L5 J13K13 C10D10 J5K5 H14G14 G2G1" />
    <trip id="55" depart="55.00" from="D1D0" to="J7J6" via="L7K7 I5I6 D14D13 F4E4 H5H6 G2G1 C3C4 K4K3 E9E10 C4D4 C9C8 B11B10 H7I7 O7N7 D0E0 E6D6 L11K11 I5H5 L8K8 H0G0 O12O13 I0J0 B4C4 J2J3 K2L2 A10A9 K8L8 D7D8 K10K11 M1M0 A5A4 K2K3 B9A9 J9J8 G7G6 I13I14 G9G8 A5B5 L11K11 G3G2 B8A8 M5M4 A7B7 F13F14 A1B1 O4O5 A10A9 B3B4 A4A3 F6F7 A11A10 O14N14 B1B2 J9J10 G1G0 H11I11 G3G2 K4K3 E6D6 O7N7 B3B2 L5M5 O9O10 E3E4" />
    <trip id="56" depart="56.00" from="H14G14" to="K5J5" via="H0G0 L13M13 O4O5 L9K9 K10K11 F6E6 C8D8 D10E10 I0I1 J10I10 B4A4 O6O5 B11C11 J5K5 J12J13 K1K2 D6C6 E13D13 O3O2 M5L5 D8D9 H2I2 F9E9 H4H5 N4M4 D11D12 I7I8 J8I8 L11M11 C8C7 A9A8 I12I11 I6H6 B7B8 K1J1 C14D14 H2I2 F9G9 J12J11 N10N9 K7K6 D5E5 A3A4 H13H12 N0M0 C4B4 D4D3 I9H9 F7F8 E2D2 L4L5 J13J14 A1B1 K6J6 I11J11 F8F7 H13I13 O2O3 F13F14 H10H11 E7F7 I3J3 O2O1 I4H4" />
    <trip id="57" depart="57.00" from="E8D8" to="B13B12" via="E14F14 E8F8 H8G8 F9E9 L9L10 G7H7 E8E7 F7F8 H4I4 M2M3 J7J6 N3N2 M4M3 F13G13 F14G14 C7C6 H9I9 F1F2 M11N11 L4M4 C12C13 L9L10 E4F4 O6O7 D8D7 B14B13 G4F4 I8H8 M7L7 A12A11 L12L11 A5B5 I14J14 J13I13 J13J12 L8L9 N3N4 N12N11 N0N1 H6G6 G4H4 N12O12 G8G7 I10H10 G5G4 H9I9 K6K5 N14N13 E12D12 A3B3 D5C5 J1J2 B9A9 I3J3 E6E7 M5M4 F0F1 F8F7 M9L9 F14E14 N14N13 F10G10 L11L10 A4B4" />
    <trip id="58" depart="58.00" from="B13B14" to="D12C12" via="D9E9 C12D12 G8G9 N13N14 D3C3 J10K10 J4K4 M10N10 E9F9 N4O4 H9H8 C14B14 J13I13 N10O10 J1J0 J9I9 M9M8 N12N13 B14B13 J1J0 B14C14 M10L10 O8O9 B6B7 B3B4 O12N12 L5L6 E2F2 B3C3 B3B2 G8G7 H12H13 A8B8 C10B10 K3L3 B3C3 G3F3 K5L5 N7O7 K12J12 I6J6 H5I5 A11B11 D3C3 E11D11 K2K1 H10I10 E0F0 D12C12 H2H1 H10G10 L12K12 F9F10 G7G8 I10I9 L8L7 A10B10 O2O1 F10E10 G7H7 L1L2 D8D9 B6C6 N12N13" />
    <trip id="59" depart="59.00" from="G0F0" to="J5I5" via="F4E4 M14M13 E0D0 A7A6 B0A0 C0D0 E2F2 A9A8 O9O8 I1J1 L10K10 E4F4 J4K4 C13B13 J3I3 B14C14 C1C2 A8B8 K8K7 H11H10 C0D0 N10M10 E0E1 D9E9 G3G4 E2E3 F7F8 J11J10 G12F12 H11H10 E7D7 E10E9 M10M9 N6M6 L6L7 D6E6 G14G13 O1N1 M4M3 H2H3 J13I13 E3F3 E4D4 L13L12 M9N9 N2N1 I11I10 O6N6 F10F11 E3F3 F8F9 N7M7 D5D4 J0J1 L5L6 D7D8 D3E3 J6J7 H11H10 M5N5 H1I1 N8O8 M8M7 I9J9" />
</routes>
