<?xml version='1.0' encoding='us-ascii'?>
<additional xmlns:xsi="http://www.w3.org/2001/XMLSchema-instance" xsi:noNamespaceSchemaLocation="http://sumo.dlr.de/xsd/additional_file.xsd">
	<poly id="building-0_0-0_0" type="building" fill="1" layer="-1.0" color="128,128,128" shape="10.0,10.0 72.5,10.0 72.5,72.5 10.0,72.5 10.0,10.0" height="21.332" />
	<poly id="building-0_0-0_1" type="building" fill="1" layer="-1.0" color="128,128,128" shape="10.0,82.5 72.5,82.5 72.5,145.0 10.0,145.0 10.0,82.5" height="14.010" />
	<poly id="building-0_0-0_2" type="building" fill="1" layer="-1.0" color="128,128,128" shape="10.0,155.0 72.5,155.0 72.5,217.5 10.0,217.5 10.0,155.0" height="15.610" />
	<poly id="building-0_0-0_3" type="building" fill="1" layer="-1.0" color="128,128,128" shape="10.0,227.5 72.5,227.5 72.5,290.0 10.0,290.0 10.0,227.5" height="34.054" />
	<poly id="building-0_1-0_0" type="building" fill="1" layer="-1.0" color="128,128,128" shape="82.5,10.0 145.0,10.0 145.0,72.5 82.5,72.5 82.5,10.0" height="22.822" />
	<poly id="building-0_1-0_1" type="building" fill="1" layer="-1.0" color="128,128,128" shape="82.5,82.5 145.0,82.5 145.0,145.0 82.5,145.0 82.5,82.5" height="41.924" />
	<poly id="building-0_1-0_2" type="building" fill="1" layer="-1.0" color="128,128,128" shape="82.5,155.0 145.0,155.0 145.0,217.5 82.5,217.5 82.5,155.0" height="42.545" />
	<poly id="building-0_1-0_3" type="building" fill="1" layer="-1.0" color="128,128,128" shape="82.5,227.5 145.0,227.5 145.0,290.0 82.5,290.0 82.5,227.5" height="39.820" />
	<poly id="building-0_2-0_0" type="building" fill="1" layer="-1.0" color="128,128,128" shape="155.0,10.0 217.5,10.0 217.5,72.5 155.0,72.5 155.0,10.0" height="32.588" />
	<poly id="building-0_2-0_1" type="building" fill="1" layer="-1.0" color="128,128,128" shape="155.0,82.5 217.5,82.5 217.5,145.0 155.0,145.0 155.0,82.5" height="28.946" />
	<poly id="building-0_2-0_2" type="building" fill="1" layer="-1.0" color="128,128,128" shape="155.0,155.0 217.5,155.0 217.5,217.5 155.0,217.5 155.0,155.0" height="35.181" />
	<poly id="building-0_2-0_3" type="building" fill="1" layer="-1.0" color="128,128,128" shape="155.0,227.5 217.5,227.5 217.5,290.0 155.0,290.0 155.0,227.5" height="25.725" />
	<poly id="building-0_3-0_0" type="building" fill="1" layer="-1.0" color="128,128,128" shape="227.5,10.0 290.0,10.0 290.0,72.5 227.5,72.5 227.5,10.0" height="20.895" />
	<poly id="building-0_3-0_1" type="building" fill="1" layer="-1.0" color="128,128,128" shape="227.5,82.5 290.0,82.5 290.0,145.0 227.5,145.0 227.5,82.5" height="28.616" />
	<poly id="building-0_3-0_2" type="building" fill="1" layer="-1.0" color="128,128,128" shape="227.5,155.0 290.0,155.0 290.0,217.5 227.5,217.5 227.5,155.0" height="13.842" />
	<poly id="building-0_3-0_3" type="building" fill="1" layer="-1.0" color="128,128,128" shape="227.5,227.5 290.0,227.5 290.0,290.0 227.5,290.0 227.5,227.5" height="19.011" />
	<poly id="building-0_0-1_0" type="building" fill="1" layer="-1.0" color="128,128,128" shape="10.0,310.0 72.5,310.0 72.5,372.5 10.0,372.5 10.0,310.0" height="35.678" />
	<poly id="building-0_0-1_1" type="building" fill="1" layer="-1.0" color="128,128,128" shape="10.0,382.5 72.5,382.5 72.5,445.0 10.0,445.0 10.0,382.5" height="19.225" />
	<poly id="building-0_0-1_2" type="building" fill="1" layer="-1.0" color="128,128,128" shape="10.0,455.0 72.5,455.0 72.5,517.5 10.0,517.5 10.0,455.0" height="35.072" />
	<poly id="building-0_0-1_3" type="building" fill="1" layer="-1.0" color="128,128,128" shape="10.0,527.5 72.5,527.5 72.5,590.0 10.0,590.0 10.0,527.5" height="19.662" />
	<poly id="building-0_1-1_0" type="building" fill="1" layer="-1.0" color="128,128,128" shape="82.5,310.0 145.0,310.0 145.0,372.5 82.5,372.5 82.5,310.0" height="22.887" />
	<poly id="building-0_1-1_1" type="building" fill="1" layer="-1.0" color="128,128,128" shape="82.5,382.5 145.0,382.5 145.0,445.0 82.5,445.0 82.5,382.5" height="28.449" />
	<poly id="building-0_1-1_2" type="building" fill="1" layer="-1.0" color="128,128,128" shape="82.5,455.0 145.0,455.0 145.0,517.5 82.5,517.5 82.5,455.0" height="23.485" />
	<poly id="building-0_1-1_3" type="building" fill="1" layer="-1.0" color="128,128,128" shape="82.5,527.5 145.0,527.5 145.0,590.0 82.5,590.0 82.5,527.5" height="20.471" />
	<poly id="building-0_2-1_0" type="building" fill="1" layer="-1.0" color="128,128,128" shape="155.0,310.0 217.5,310.0 217.5,372.5 155.0,372.5 155.0,310.0" height="13.817" />
	<poly id="building-0_2-1_1" type="building" fill="1" layer="-1.0" color="128,128,128" shape="155.0,382.5 217.5,382.5 217.5,445.0 155.0,445.0 155.0,382.5" height="10.807" />
	<poly id="building-0_2-1_2" type="building" fill="1" layer="-1.0" color="128,128,128" shape="155.0,455.0 217.5,455.0 217.5,517.5 155.0,517.5 155.0,455.0" height="37.681" />
	<poly id="building-0_2-1_3" type="building" fill="1" layer="-1.0" color="128,128,128" shape="155.0,527.5 217.5,527.5 217.5,590.0 155.0,590.0 155.0,527.5" height="24.046" />
	<poly id="building-0_3-1_0" type="building" fill="1" layer="-1.0" color="128,128,128" shape="227.5,310.0 290.0,310.0 290.0,372.5 227.5,372.5 227.5,310.0" height="15.293" />
	<poly id="building-0_3-1_1" type="building" fill="1" layer="-1.0" color="128,128,128" shape="227.5,382.5 290.0,382.5 290.0,445.0 227.5,445.0 227.5,382.5" height="27.714" />
	<poly id="building-0_3-1_2" type="building" fill="1" layer="-1.0" color="128,128,128" shape="227.5,455.0 290.0,455.0 290.0,517.5 227.5,517.5 227.5,455.0" height="20.074" />
	<poly id="building-0_3-1_3" type="building" fill="1" layer="-1.0" color="128,128,128" shape="227.5,527.5 290.0,527.5 290.0,590.0 227.5,590.0 227.5,527.5" height="27.345" />
	<poly id="building-0_0-2_0" type="building" fill="1" layer="-1.0" color="128,128,128" shape="10.0,610.0 72.5,610.0 72.5,672.5 10.0,672.5 10.0,610.0" height="44.769" />
	<poly id="building-0_0-2_1" type="building" fill="1" layer="-1.0" color="128,128,128" shape="10.0,682.5 72.5,682.5 72.5,745.0 10.0,745.0 10.0,682.5" height="41.319" />
	<poly id="building-0_0-2_2" type="building" fill="1" layer="-1.0" color="128,128,128" shape="10.0,755.0 72.5,755.0 72.5,817.5 10.0,817.5 10.0,755.0" height="36.456" />
	<poly id="building-0_0-2_3" type="building" fill="1" layer="-1.0" color="128,128,128" shape="10.0,827.5 72.5,827.5 72.5,890.0 10.0,890.0 10.0,827.5" height="45.413" />
	<poly id="building-0_1-2_0" type="building" fill="1" layer="-1.0" color="128,128,128" shape="82.5,610.0 145.0,610.0 145.0,672.5 82.5,672.5 82.5,610.0" height="18.904" />
	<poly id="building-0_1-2_1" type="building" fill="1" layer="-1.0" color="128,128,128" shape="82.5,682.5 145.0,682.5 145.0,745.0 82.5,745.0 82.5,682.5" height="40.080" />
	<poly id="building-0_1-2_2" type="building" fill="1" layer="-1.0" color="128,128,128" shape="82.5,755.0 145.0,755.0 145.0,817.5 82.5,817.5 82.5,755.0" height="21.078" />
	<poly id="building-0_1-2_3" type="building" fill="1" layer="-1.0" color="128,128,128" shape="82.5,827.5 145.0,827.5 145.0,890.0 82.5,890.0 82.5,827.5" height="41.008" />
	<poly id="building-0_2-2_0" type="building" fill="1" layer="-1.0" color="128,128,128" shape="155.0,610.0 217.5,610.0 217.5,672.5 155.0,672.5 155.0,610.0" height="44.603" />
	<poly id="building-0_2-2_1" type="building" fill="1" layer="-1.0" color="128,128,128" shape="155.0,682.5 217.5,682.5 217.5,745.0 155.0,745.0 155.0,682.5" height="15.176" />
	<poly id="building-0_2-2_2" type="building" fill="1" layer="-1.0" color="128,128,128" shape="155.0,755.0 217.5,755.0 217.5,817.5 155.0,817.5 155.0,755.0" height="47.409" />
	<poly id="building-0_2-2_3" type="building" fill="1" layer="-1.0" color="128,128,128" shape="155.0,827.5 217.5,827.5 217.5,890.0 155.0,890.0 155.0,827.5" height="27.183" />
	<poly id="building-0_3-2_0" type="building" fill="1" layer="-1.0" color="128,128,128" shape="227.5,610.0 290.0,610.0 290.0,672.5 227.5,672.5 227.5,610.0" height="28.903" />
	<poly id="building-0_3-2_1" type="building" fill="1" layer="-1.0" color="128,128,128" shape="227.5,682.5 290.0,682.5 290.0,745.0 227.5,745.0 227.5,682.5" height="28.413" />
	<poly id="building-0_3-2_2" type="building" fill="1" layer="-1.0" color="128,128,128" shape="227.5,755.0 290.0,755.0 290.0,817.5 227.5,817.5 227.5,755.0" height="44.526" />
	<poly id="building-0_3-2_3" type="building" fill="1" layer="-1.0" color="128,128,128" shape="227.5,827.5 290.0,827.5 290.0,890.0 227.5,890.0 227.5,827.5" height="12.968" />
	<poly id="building-0_0-3_0" type="building" fill="1" layer="-1.0" color="128,128,128" shape="10.0,910.0 72.5,910.0 72.5,972.5 10.0,972.5 10.0,910.0" height="27.987" />
	<poly id="building-0_0-3_1" type="building" fill="1" layer="-1.0" color="128,128,128" shape="10.0,982.5 72.5,982.5 72.5,1045.0 10.0,1045.0 10.0,982.5" height="30.476" />
	<poly id="building-0_0-3_2" type="building" fill="1" layer="-1.0" color="128,128,128" shape="10.0,1055.0 72.5,1055.0 72.5,1117.5 10.0,1117.5 10.0,1055.0" height="40.101" />
	<poly id="building-0_0-3_3" type="building" fill="1" layer="-1.0" color="128,128,128" shape="10.0,1127.5 72.5,1127.5 72.5,1190.0 10.0,1190.0 10.0,1127.5" height="16.283" />
	<poly id="building-0_1-3_0" type="building" fill="1" layer="-1.0" color="128,128,128" shape="82.5,910.0 145.0,910.0 145.0,972.5 82.5,972.5 82.5,910.0" height="37.332" />
	<poly id="building-0_1-3_1" type="building" fill="1" layer="-1.0" color="128,128,128" shape="82.5,982.5 145.0,982.5 145.0,1045.0 82.5,1045.0 82.5,982.5" height="49.755" />
	<poly id="building-0_1-3_2" type="building" fill="1" layer="-1.0" color="128,128,128" shape="82.5,1055.0 145.0,1055.0 145.0,1117.5 82.5,1117.5 82.5,1055.0" height="27.696" />
	<poly id="building-0_1-3_3" type="building" fill="1" layer="-1.0" color="128,128,128" shape="82.5,1127.5 145.0,1127.5 145.0,1190.0 82.5,1190.0 82.5,1127.5" height="11.789" />
	<poly id="building-0_2-3_0" type="building" fill="1" layer="-1.0" color="128,128,128" shape="155.0,910.0 217.5,910.0 217.5,972.5 155.0,972.5 155.0,910.0" height="45.085" />
	<poly id="building-0_2-3_1" type="building" fill="1" layer="-1.0" color="128,128,128" shape="155.0,982.5 217.5,982.5 217.5,1045.0 155.0,1045.0 155.0,982.5" height="14.651" />
	<poly id="building-0_2-3_2" type="building" fill="1" layer="-1.0" color="128,128,128" shape="155.0,1055.0 217.5,1055.0 217.5,1117.5 155.0,1117.5 155.0,1055.0" height="43.807" />
	<poly id="building-0_2-3_3" type="building" fill="1" layer="-1.0" color="128,128,128" shape="155.0,1127.5 217.5,1127.5 217.5,1190.0 155.0,1190.0 155.0,1127.5" height="12.111" />
	<poly id="building-0_3-3_0" type="building" fill="1" layer="-1.0" color="128,128,128" shape="227.5,910.0 290.0,910.0 290.0,972.5 227.5,972.5 227.5,910.0" height="19.011" />
	<poly id="building-0_3-3_1" type="building" fill="1" layer="-1.0" color="128,128,128" shape="227.5,982.5 290.0,982.5 290.0,1045.0 227.5,1045.0 227.5,982.5" height="44.487" />
	<poly id="building-0_3-3_2" type="building" fill="1" layer="-1.0" color="128,128,128" shape="227.5,1055.0 290.0,1055.0 290.0,1117.5 227.5,1117.5 227.5,1055.0" height="32.687" />
	<poly id="building-0_3-3_3" type="building" fill="1" layer="-1.0" color="128,128,128" shape="227.5,1127.5 290.0,1127.5 290.0,1190.0 227.5,1190.0 227.5,1127.5" height="33.410" />
	<poly id="building-1_0-0_0" type="building" fill="1" layer="-1.0" color="128,128,128" shape="310.0,10.0 372.5,10.0 372.5,72.5 310.0,72.5 310.0,10.0" height="27.441" />
	<poly id="building-1_0-0_1" type="building" fill="1" layer="-1.0" color="128,128,128" shape="310.0,82.5 372.5,82.5 372.5,145.0 310.0,145.0 310.0,82.5" height="32.242" />
	<poly id="building-1_0-0_2" type="building" fill="1" layer="-1.0" color="128,128,128" shape="310.0,155.0 372.5,155.0 372.5,217.5 310.0,217.5 310.0,155.0" height="28.734" />
	<poly id="building-1_0-0_3" type="building" fill="1" layer="-1.0" color="128,128,128" shape="310.0,227.5 372.5,227.5 372.5,290.0 310.0,290.0 310.0,227.5" height="16.395" />
	<poly id="building-1_1-0_0" type="building" fill="1" layer="-1.0" color="128,128,128" shape="382.5,10.0 445.0,10.0 445.0,72.5 382.5,72.5 382.5,10.0" height="30.558" />
	<poly id="building-1_1-0_1" type="building" fill="1" layer="-1.0" color="128,128,128" shape="382.5,82.5 445.0,82.5 445.0,145.0 382.5,145.0 382.5,82.5" height="46.608" />
	<poly id="building-1_1-0_2" type="building" fill="1" layer="-1.0" color="128,128,128" shape="382.5,155.0 445.0,155.0 445.0,217.5 382.5,217.5 382.5,155.0" height="24.286" />
	<poly id="building-1_1-0_3" type="building" fill="1" layer="-1.0" color="128,128,128" shape="382.5,227.5 445.0,227.5 445.0,290.0 382.5,290.0 382.5,227.5" height="23.380" />
	<poly id="building-1_2-0_0" type="building" fill="1" layer="-1.0" color="128,128,128" shape="455.0,10.0 517.5,10.0 517.5,72.5 455.0,72.5 455.0,10.0" height="47.409" />
	<poly id="building-1_2-0_1" type="building" fill="1" layer="-1.0" color="128,128,128" shape="455.0,82.5 517.5,82.5 517.5,145.0 455.0,145.0 455.0,82.5" height="29.259" />
	<poly id="building-1_2-0_2" type="building" fill="1" layer="-1.0" color="128,128,128" shape="455.0,155.0 517.5,155.0 517.5,217.5 455.0,217.5 455.0,155.0" height="20.665" />
	<poly id="building-1_2-0_3" type="building" fill="1" layer="-1.0" color="128,128,128" shape="455.0,227.5 517.5,227.5 517.5,290.0 455.0,290.0 455.0,227.5" height="49.743" />
	<poly id="building-1_3-0_0" type="building" fill="1" layer="-1.0" color="128,128,128" shape="527.5,10.0 590.0,10.0 590.0,72.5 527.5,72.5 527.5,10.0" height="16.376" />
	<poly id="building-1_3-0_1" type="building" fill="1" layer="-1.0" color="128,128,128" shape="527.5,82.5 590.0,82.5 590.0,145.0 527.5,145.0 527.5,82.5" height="20.272" />
	<poly id="building-1_3-0_2" type="building" fill="1" layer="-1.0" color="128,128,128" shape="527.5,155.0 590.0,155.0 590.0,217.5 527.5,217.5 527.5,155.0" height="17.589" />
	<poly id="building-1_3-0_3" type="building" fill="1" layer="-1.0" color="128,128,128" shape="527.5,227.5 590.0,227.5 590.0,290.0 527.5,290.0 527.5,227.5" height="48.025" />
	<poly id="building-1_0-1_0" type="building" fill="1" layer="-1.0" color="128,128,128" shape="310.0,310.0 372.5,310.0 372.5,372.5 310.0,372.5 310.0,310.0" height="40.310" />
	<poly id="building-1_0-1_1" type="building" fill="1" layer="-1.0" color="128,128,128" shape="310.0,382.5 372.5,382.5 372.5,445.0 310.0,445.0 310.0,382.5" height="41.158" />
	<poly id="building-1_0-1_2" type="building" fill="1" layer="-1.0" color="128,128,128" shape="310.0,455.0 372.5,455.0 372.5,517.5 310.0,517.5 310.0,455.0" height="27.261" />
	<poly id="building-1_0-1_3" type="building" fill="1" layer="-1.0" color="128,128,128" shape="310.0,527.5 372.5,527.5 372.5,590.0 310.0,590.0 310.0,527.5" height="29.012" />
	<poly id="building-1_1-1_0" type="building" fill="1" layer="-1.0" color="128,128,128" shape="382.5,310.0 445.0,310.0 445.0,372.5 382.5,372.5 382.5,310.0" height="11.507" />
	<poly id="building-1_1-1_1" type="building" fill="1" layer="-1.0" color="128,128,128" shape="382.5,382.5 445.0,382.5 445.0,445.0 382.5,445.0 382.5,382.5" height="37.579" />
	<poly id="building-1_1-1_2" type="building" fill="1" layer="-1.0" color="128,128,128" shape="382.5,455.0 445.0,455.0 445.0,517.5 382.5,517.5 382.5,455.0" height="21.998" />
	<poly id="building-1_1-1_3" type="building" fill="1" layer="-1.0" color="128,128,128" shape="382.5,527.5 445.0,527.5 445.0,590.0 382.5,590.0 382.5,527.5" height="36.324" />
	<poly id="building-1_2-1_0" type="building" fill="1" layer="-1.0" color="128,128,128" shape="455.0,310.0 517.5,310.0 517.5,372.5 455.0,372.5 455.0,310.0" height="26.007" />
	<poly id="building-1_2-1_1" type="building" fill="1" layer="-1.0" color="128,128,128" shape="455.0,382.5 517.5,382.5 517.5,445.0 455.0,445.0 455.0,382.5" height="13.344" />
	<poly id="building-1_2-1_2" type="building" fill="1" layer="-1.0" color="128,128,128" shape="455.0,455.0 517.5,455.0 517.5,517.5 455.0,517.5 455.0,455.0" height="10.572" />
	<poly id="building-1_2-1_3" type="building" fill="1" layer="-1.0" color="128,128,128" shape="455.0,527.5 517.5,527.5 517.5,590.0 455.0,590.0 455.0,527.5" height="22.537" />
	<poly id="building-1_3-1_0" type="building" fill="1" layer="-1.0" color="128,128,128" shape="527.5,310.0 590.0,310.0 590.0,372.5 527.5,372.5 527.5,310.0" height="30.603" />
	<poly id="building-1_3-1_1" type="building" fill="1" layer="-1.0" color="128,128,128" shape="527.5,382.5 590.0,382.5 590.0,445.0 527.5,445.0 527.5,382.5" height="27.128" />
	<poly id="building-1_3-1_2" type="building" fill="1" layer="-1.0" color="128,128,128" shape="527.5,455.0 590.0,455.0 590.0,517.5 527.5,517.5 527.5,455.0" height="18.892" />
	<poly id="building-1_3-1_3" type="building" fill="1" layer="-1.0" color="128,128,128" shape="527.5,527.5 590.0,527.5 590.0,590.0 527.5,590.0 527.5,527.5" height="32.785" />
	<poly id="building-1_0-2_0" type="building" fill="1" layer="-1.0" color="128,128,128" shape="310.0,610.0 372.5,610.0 372.5,672.5 310.0,672.5 310.0,610.0" height="19.359" />
	<poly id="building-1_0-2_1" type="building" fill="1" layer="-1.0" color="128,128,128" shape="310.0,682.5 372.5,682.5 372.5,745.0 310.0,745.0 310.0,682.5" height="31.274" />
	<poly id="building-1_0-2_2" type="building" fill="1" layer="-1.0" color="128,128,128" shape="310.0,755.0 372.5,755.0 372.5,817.5 310.0,817.5 310.0,755.0" height="46.362" />
	<poly id="building-1_0-2_3" type="building" fill="1" layer="-1.0" color="128,128,128" shape="310.0,827.5 372.5,827.5 372.5,890.0 310.0,890.0 310.0,827.5" height="28.610" />
	<poly id="building-1_1-2_0" type="building" fill="1" layer="-1.0" color="128,128,128" shape="382.5,610.0 445.0,610.0 445.0,672.5 382.5,672.5 382.5,610.0" height="12.713" />
	<poly id="building-1_1-2_1" type="building" fill="1" layer="-1.0" color="128,128,128" shape="382.5,682.5 445.0,682.5 445.0,745.0 382.5,745.0 382.5,682.5" height="34.005" />
	<poly id="building-1_1-2_2" type="building" fill="1" layer="-1.0" color="128,128,128" shape="382.5,755.0 445.0,755.0 445.0,817.5 382.5,817.5 382.5,755.0" height="12.371" />
	<poly id="building-1_1-2_3" type="building" fill="1" layer="-1.0" color="128,128,128" shape="382.5,827.5 445.0,827.5 445.0,890.0 382.5,890.0 382.5,827.5" height="12.160" />
	<poly id="building-1_2-2_0" type="building" fill="1" layer="-1.0" color="128,128,128" shape="455.0,610.0 517.5,610.0 517.5,672.5 455.0,672.5 455.0,610.0" height="43.732" />
	<poly id="building-1_2-2_1" type="building" fill="1" layer="-1.0" color="128,128,128" shape="455.0,682.5 517.5,682.5 517.5,745.0 455.0,745.0 455.0,682.5" height="23.445" />
	<poly id="building-1_2-2_2" type="building" fill="1" layer="-1.0" color="128,128,128" shape="455.0,755.0 517.5,755.0 517.5,817.5 455.0,817.5 455.0,755.0" height="17.225" />
	<poly id="building-1_2-2_3" type="building" fill="1" layer="-1.0" color="128,128,128" shape="455.0,827.5 517.5,827.5 517.5,890.0 455.0,890.0 455.0,827.5" height="37.540" />
	<poly id="building-1_3-2_0" type="building" fill="1" layer="-1.0" color="128,128,128" shape="527.5,610.0 590.0,610.0 590.0,672.5 527.5,672.5 527.5,610.0" height="32.696" />
	<poly id="building-1_3-2_1" type="building" fill="1" layer="-1.0" color="128,128,128" shape="527.5,682.5 590.0,682.5 590.0,745.0 527.5,745.0 527.5,682.5" height="35.459" />
	<poly id="building-1_3-2_2" type="building" fill="1" layer="-1.0" color="128,128,128" shape="527.5,755.0 590.0,755.0 590.0,817.5 527.5,817.5 527.5,755.0" height="31.980" />
	<poly id="building-1_3-2_3" type="building" fill="1" layer="-1.0" color="128,128,128" shape="527.5,827.5 590.0,827.5 590.0,890.0 527.5,890.0 527.5,827.5" height="37.411" />
	<poly id="building-1_0-3_0" type="building" fill="1" layer="-1.0" color="128,128,128" shape="310.0,910.0 372.5,910.0 372.5,972.5 310.0,972.5 310.0,910.0" height="19.900" />
	<poly id="building-1_0-3_1" type="building" fill="1" layer="-1.0" color="128,128,128" shape="310.0,982.5 372.5,982.5 372.5,1045.0 310.0,1045.0 310.0,982.5" height="45.183" />
	<poly id="building-1_0-3_2" type="building" fill="1" layer="-1.0" color="128,128,128" shape="310.0,1055.0 372.5,1055.0 372.5,1117.5 310.0,1117.5 310.0,1055.0" height="10.574" />
	<poly id="building-1_0-3_3" type="building" fill="1" layer="-1.0" color="128,128,128" shape="310.0,1127.5 372.5,1127.5 372.5,1190.0 310.0,1190.0 310.0,1127.5" height="46.241" />
	<poly id="building-1_1-3_0" type="building" fill="1" layer="-1.0" color="128,128,128" shape="382.5,910.0 445.0,910.0 445.0,972.5 382.5,972.5 382.5,910.0" height="23.729" />
	<poly id="building-1_1-3_1" type="building" fill="1" layer="-1.0" color="128,128,128" shape="382.5,982.5 445.0,982.5 445.0,1045.0 382.5,1045.0 382.5,982.5" height="13.432" />
	<poly id="building-1_1-3_2" type="building" fill="1" layer="-1.0" color="128,128,128" shape="382.5,1055.0 445.0,1055.0 445.0,1117.5 382.5,1117.5 382.5,1055.0" height="24.667" />
	<poly id="building-1_1-3_3" type="building" fill="1" layer="-1.0" color="128,128,128" shape="382.5,1127.5 445.0,1127.5 445.0,1190.0 382.5,1190.0 382.5,1127.5" height="36.628" />
	<poly id="building-1_2-3_0" type="building" fill="1" layer="-1.0" color="128,128,128" shape="455.0,910.0 517.5,910.0 517.5,972.5 455.0,972.5 455.0,910.0" height="35.339" />
	<poly id="building-1_2-3_1" type="building" fill="1" layer="-1.0" color="128,128,128" shape="455.0,982.5 517.5,982.5 517.5,1045.0 455.0,1045.0 455.0,982.5" height="32.023" />
	<poly id="building-1_2-3_2" type="building" fill="1" layer="-1.0" color="128,128,128" shape="455.0,1055.0 517.5,1055.0 517.5,1117.5 455.0,1117.5 455.0,1055.0" height="13.020" />
	<poly id="building-1_2-3_3" type="building" fill="1" layer="-1.0" color="128,128,128" shape="455.0,1127.5 517.5,1127.5 517.5,1190.0 455.0,1190.0 455.0,1127.5" height="48.805" />
	<poly id="building-1_3-3_0" type="building" fill="1" layer="-1.0" color="128,128,128" shape="527.5,910.0 590.0,910.0 590.0,972.5 527.5,972.5 527.5,910.0" height="31.714" />
	<poly id="building-1_3-3_1" type="building" fill="1" layer="-1.0" color="128,128,128" shape="527.5,982.5 590.0,982.5 590.0,1045.0 527.5,1045.0 527.5,982.5" height="19.717" />
	<poly id="building-1_3-3_2" type="building" fill="1" layer="-1.0" color="128,128,128" shape="527.5,1055.0 590.0,1055.0 590.0,1117.5 527.5,1117.5 527.5,1055.0" height="31.134" />
	<poly id="building-1_3-3_3" type="building" fill="1" layer="-1.0" color="128,128,128" shape="527.5,1127.5 590.0,1127.5 590.0,1190.0 527.5,1190.0 527.5,1127.5" height="12.020" />
	<poly id="building-2_0-0_0" type="building" fill="1" layer="-1.0" color="128,128,128" shape="610.0,10.0 672.5,10.0 672.5,72.5 610.0,72.5 610.0,10.0" height="38.047" />
	<poly id="building-2_0-0_1" type="building" fill="1" layer="-1.0" color="128,128,128" shape="610.0,82.5 672.5,82.5 672.5,145.0 610.0,145.0 610.0,82.5" height="41.635" />
	<poly id="building-2_0-0_2" type="building" fill="1" layer="-1.0" color="128,128,128" shape="610.0,155.0 672.5,155.0 672.5,217.5 610.0,217.5 610.0,155.0" height="44.362" />
	<poly id="building-2_0-0_3" type="building" fill="1" layer="-1.0" color="128,128,128" shape="610.0,227.5 672.5,227.5 672.5,290.0 610.0,290.0 610.0,227.5" height="31.167" />
	<poly id="building-2_1-0_0" type="building" fill="1" layer="-1.0" color="128,128,128" shape="682.5,10.0 745.0,10.0 745.0,72.5 682.5,72.5 682.5,10.0" height="35.291" />
	<poly id="building-2_1-0_1" type="building" fill="1" layer="-1.0" color="128,128,128" shape="682.5,82.5 745.0,82.5 745.0,145.0 682.5,145.0 682.5,82.5" height="34.820" />
	<poly id="building-2_1-0_2" type="building" fill="1" layer="-1.0" color="128,128,128" shape="682.5,155.0 745.0,155.0 745.0,217.5 682.5,217.5 682.5,155.0" height="38.749" />
	<poly id="building-2_1-0_3" type="building" fill="1" layer="-1.0" color="128,128,128" shape="682.5,227.5 745.0,227.5 745.0,290.0 682.5,290.0 682.5,227.5" height="20.642" />
	<poly id="building-2_2-0_0" type="building" fill="1" layer="-1.0" color="128,128,128" shape="755.0,10.0 817.5,10.0 817.5,72.5 755.0,72.5 755.0,10.0" height="43.303" />
	<poly id="building-2_2-0_1" type="building" fill="1" layer="-1.0" color="128,128,128" shape="755.0,82.5 817.5,82.5 817.5,145.0 755.0,145.0 755.0,82.5" height="29.913" />
	<poly id="building-2_2-0_2" type="building" fill="1" layer="-1.0" color="128,128,128" shape="755.0,155.0 817.5,155.0 817.5,217.5 755.0,217.5 755.0,155.0" height="25.877" />
	<poly id="building-2_2-0_3" type="building" fill="1" layer="-1.0" color="128,128,128" shape="755.0,227.5 817.5,227.5 817.5,290.0 755.0,290.0 755.0,227.5" height="31.229" />
	<poly id="building-2_3-0_0" type="building" fill="1" layer="-1.0" color="128,128,128" shape="827.5,10.0 890.0,10.0 890.0,72.5 827.5,72.5 827.5,10.0" height="40.193" />
	<poly id="building-2_3-0_1" type="building" fill="1" layer="-1.0" color="128,128,128" shape="827.5,82.5 890.0,82.5 890.0,145.0 827.5,145.0 827.5,82.5" height="17.839" />
	<poly id="building-2_3-0_2" type="building" fill="1" layer="-1.0" color="128,128,128" shape="827.5,155.0 890.0,155.0 890.0,217.5 827.5,217.5 827.5,155.0" height="22.391" />
	<poly id="building-2_3-0_3" type="building" fill="1" layer="-1.0" color="128,128,128" shape="827.5,227.5 890.0,227.5 890.0,290.0 827.5,290.0 827.5,227.5" height="44.540" />
	<poly id="building-2_0-1_0" type="building" fill="1" layer="-1.0" color="128,128,128" shape="610.0,310.0 672.5,310.0 672.5,372.5 610.0,372.5 610.0,310.0" height="18.092" />
	<poly id="building-2_0-1_1" type="building" fill="1" layer="-1.0" color="128,128,128" shape="610.0,382.5 672.5,382.5 672.5,445.0 610.0,445.0 610.0,382.5" height="41.339" />
	<poly id="building-2_0-1_2" type="building" fill="1" layer="-1.0" color="128,128,128" shape="610.0,455.0 672.5,455.0 672.5,517.5 610.0,517.5 610.0,455.0" height="26.075" />
	<poly id="building-2_0-1_3" type="building" fill="1" layer="-1.0" color="128,128,128" shape="610.0,527.5 672.5,527.5 672.5,590.0 610.0,590.0 610.0,527.5" height="40.908" />
	<poly id="building-2_1-1_0" type="building" fill="1" layer="-1.0" color="128,128,128" shape="682.5,310.0 745.0,310.0 745.0,372.5 682.5,372.5 682.5,310.0" height="21.641" />
	<poly id="building-2_1-1_1" type="building" fill="1" layer="-1.0" color="128,128,128" shape="682.5,382.5 745.0,382.5 745.0,445.0 682.5,445.0 682.5,382.5" height="27.982" />
	<poly id="building-2_1-1_2" type="building" fill="1" layer="-1.0" color="128,128,128" shape="682.5,455.0 745.0,455.0 745.0,517.5 682.5,517.5 682.5,455.0" height="32.696" />
	<poly id="building-2_1-1_3" type="building" fill="1" layer="-1.0" color="128,128,128" shape="682.5,527.5 745.0,527.5 745.0,590.0 682.5,590.0 682.5,527.5" height="46.935" />
	<poly id="building-2_2-1_0" type="building" fill="1" layer="-1.0" color="128,128,128" shape="755.0,310.0 817.5,310.0 817.5,372.5 755.0,372.5 755.0,310.0" height="40.183" />
	<poly id="building-2_2-1_1" type="building" fill="1" layer="-1.0" color="128,128,128" shape="755.0,382.5 817.5,382.5 817.5,445.0 755.0,445.0 755.0,382.5" height="13.211" />
	<poly id="building-2_2-1_2" type="building" fill="1" layer="-1.0" color="128,128,128" shape="755.0,455.0 817.5,455.0 817.5,517.5 755.0,517.5 755.0,455.0" height="48.886" />
	<poly id="building-2_2-1_3" type="building" fill="1" layer="-1.0" color="128,128,128" shape="755.0,527.5 817.5,527.5 817.5,590.0 755.0,590.0 755.0,527.5" height="29.585" />
	<poly id="building-2_3-1_0" type="building" fill="1" layer="-1.0" color="128,128,128" shape="827.5,310.0 890.0,310.0 890.0,372.5 827.5,372.5 827.5,310.0" height="15.898" />
	<poly id="building-2_3-1_1" type="building" fill="1" layer="-1.0" color="128,128,128" shape="827.5,382.5 890.0,382.5 890.0,445.0 827.5,445.0 827.5,382.5" height="15.045" />
	<poly id="building-2_3-1_2" type="building" fill="1" layer="-1.0" color="128,128,128" shape="827.5,455.0 890.0,455.0 890.0,517.5 827.5,517.5 827.5,455.0" height="48.627" />
	<poly id="building-2_3-1_3" type="building" fill="1" layer="-1.0" color="128,128,128" shape="827.5,527.5 890.0,527.5 890.0,590.0 827.5,590.0 827.5,527.5" height="13.246" />
	<poly id="building-2_0-2_0" type="building" fill="1" layer="-1.0" color="128,128,128" shape="610.0,610.0 672.5,610.0 672.5,672.5 610.0,672.5 610.0,610.0" height="39.094" />
	<poly id="building-2_0-2_1" type="building" fill="1" layer="-1.0" color="128,128,128" shape="610.0,682.5 672.5,682.5 672.5,745.0 610.0,745.0 610.0,682.5" height="37.017" />
	<poly id="building-2_0-2_2" type="building" fill="1" layer="-1.0" color="128,128,128" shape="610.0,755.0 672.5,755.0 672.5,817.5 610.0,817.5 610.0,755.0" height="45.562" />
	<poly id="building-2_0-2_3" type="building" fill="1" layer="-1.0" color="128,128,128" shape="610.0,827.5 672.5,827.5 672.5,890.0 610.0,890.0 610.0,827.5" height="47.228" />
	<poly id="building-2_1-2_0" type="building" fill="1" layer="-1.0" color="128,128,128" shape="682.5,610.0 745.0,610.0 745.0,672.5 682.5,672.5 682.5,610.0" height="48.947" />
	<poly id="building-2_1-2_1" type="building" fill="1" layer="-1.0" color="128,128,128" shape="682.5,682.5 745.0,682.5 745.0,745.0 682.5,745.0 682.5,682.5" height="29.026" />
	<poly id="building-2_1-2_2" type="building" fill="1" layer="-1.0" color="128,128,128" shape="682.5,755.0 745.0,755.0 745.0,817.5 682.5,817.5 682.5,755.0" height="49.231" />
	<poly id="building-2_1-2_3" type="building" fill="1" layer="-1.0" color="128,128,128" shape="682.5,827.5 745.0,827.5 745.0,890.0 682.5,890.0 682.5,827.5" height="23.599" />
	<poly id="building-2_2-2_0" type="building" fill="1" layer="-1.0" color="128,128,128" shape="755.0,610.0 817.5,610.0 817.5,672.5 755.0,672.5 755.0,610.0" height="34.633" />
	<poly id="building-2_2-2_1" type="building" fill="1" layer="-1.0" color="128,128,128" shape="755.0,682.5 817.5,682.5 817.5,745.0 755.0,745.0 755.0,682.5" height="22.721" />
	<poly id="building-2_2-2_2" type="building" fill="1" layer="-1.0" color="128,128,128" shape="755.0,755.0 817.5,755.0 817.5,817.5 755.0,817.5 755.0,755.0" height="20.008" />
	<poly id="building-2_2-2_3" type="building" fill="1" layer="-1.0" color="128,128,128" shape="755.0,827.5 817.5,827.5 817.5,890.0 755.0,890.0 755.0,827.5" height="13.545" />