<?xml version="1.0" encoding="UTF-8"?>
<!-- generated on 2023-01-24 21:25:25.732883 by $Id$ v1_8_0+0044-4820708f3d
  options: -n drones.net.xml -b 0 -e 60 -p 1 <doubleminus>random -i 64 -o drones.trips.xml
-->
<routes xmlns:xsi="http://www.w3.org/2001/XMLSchema-instance" xsi:noNamespaceSchemaLocation="http://sumo.dlr.de/xsd/routes_file.xsd">
    <trip id="0" depart="0.00" from="D5D4" to="D2E2" via="A0B0 A2B2 E0F0 G2F2 F1E1 G5F5 B5B6 D0C0 F6G6 E4F4 D2E2 A0B0 E2F2 F1F0 E3D3 C3C2 G6F6 G6G5 C1B1 A6A5 C6D6 G4G3 G4F4 C2B2 G0F0 A1A2 B2A2 F2F1 F0E0 G3F3 E4E3 F5G5 E2F2 D1C1 C5D5 C1C0 E4D4 G1F1 G5F5 E1D1 F1G1 F6E6 E3E4 A0A1 E0D0 B3B4 C1C0 E0E1 E6D6 G2G1 E1D1 E5D5 A1B1 F0E0 B1C1 D6E6 C2C1 C1C0 G2G1 E4D4 C1B1 A5A6 C2C1 B6B5" />
    <trip id="1" depart="1.00" from="B2C2" to="C2C3" via="E3F3 B1A1 C1B1 B3C3 A2A3 A2A1 E5D5 B6A6 F1F2 F1G1 F3F2 G3G4 C5D5 D5D6 F1F0 B4B3 B1B0 D4D3 F0G0 E3E4 G1G0 D1D2 E5E4 E2D2 D4D5 D1D2 E1F1 G5G4 D4C4 D1D2 G4F4 B2B3 E5F5 A4B4 A3B3 E4D4 G0F0 B5A5 F1F0 G5G4 A5A4 C3C2 C4B4 B1B0 B2B3 F2F1 D1E1 G1G2 A3A4 C0C1 C3D3 E5E6 G6G5 C0C1 G4G5 F4F5 B2B1 C4D4 F5F6 G2G1 D1E1 G5F5 B3B4 C5B5" />
    <trip id="2" depart="2.00" from="F4E4" to="B2A2" via="A6B6 C6D6 G1G0 A2A3 A6B6 G3F3 C4C5 G6F6 D0C0 E3E2 E5F5 G3G2 C1C0 B3B4 E0F0 A0B0 C2B2 C6B6 F5G5 C5D5 B1B2 B5C5 D1D2 E0F0 B3B4 G3G4 E1E2 C1B1 F2F1 E4F4 C5C6 D3D4 G2G3 C1D1 B2B1 C1C2 E4E3 B5B6 F2F3 E4F4 G6F6 C6C5 B2B1 D6C6 E4E5 B2C2 F2E2 C0C1 F1E1 D0C0 B3B4 F4E4 D3C3 C2D2 A1B1 F2E2 G4G3 A3B3 D6C6 C1C0 D5E5 A1A0 D2D1 B2B3" />
    <trip id="3" depart="3.00" from="D6C6" to="E1E2" via="F5F6 F3F4 C5C6 A6B6 B2B3 E3F3 A5A6 D2D1 G5G6 B4B3 A3A4 E4E5 C3C4 G1G2 D4E4 F0E0 C1D1 B6B5 G1G0 G2G3 D6E6 C5B5 C3C4 C6B6 A3A4 D2E2 F6E6 D4E4 A1A0 F1G1 B4B5 A3B3 C2C3 E5E4 B1C1 D6C6 B3C3 F3G3 F1G1 C2D2 D6C6 G1G2 F5G5 E3E4 A1B1 D6C6 E2D2 F3E3 D0E0 B5B6 D5D4 F3F4 E0F0 B1B0 E6F6 D4D3 F0E0 D3E3 E6F6 G6F6 E5F5 B3B2 D4C4 C6D6" />
    <trip id="4" depart="4.00" from="F4E4" to="F1F0" via="E4F4 E4E5 D5E5 F2F3 C2C3 G0G1 F6G6 D4D3 B1B0 C4C3 B6C6 A1A2 G0F0 B0B1 B2B1 F3F4 C4B4 G4G3 A5A6 G0F0 F6G6 C5D5 F1E1 C0C1 E4F4 A4A5 E5F5 F2F3 C6B6 B6C6 B5B4 B0C0 C1B1 E0D0 A4A5 E4E3 A4A5 D6E6 B3C3 C4C3 A1A0 B3C3 F6E6 E6E5 C5D5 D2D3 F1G1 G2G1 F3F4 G5G4 D6E6 F5E5 G3F3 C6C5 E4F4 E1E2 G0G1 D6C6 C1C2 A4A5 E1E2 F4F5 E6D6 G0F0" />
    <trip id="5" depart="5.00" from="F2G2" to="B5B6" via="E5D5 G1G2 E4F4 G1F1 A4A5 E3E2 D5D6 D5D6 A3A2 C2B2 D0D1 G5G6 F5G5 D6E6 G6F6 C1B1 F2F3 F1F0 A0B0 E2D2 G1G0 C1C0 B3B4 C4C5 C3C4 G2F2 E2F2 E2D2 F4F3 A0B0 C2B2 D4D5 D3E3 F3F4 E4F4 A2B2 E4D4 A2A3 D0D1 E2E3 B5B4 C3D3 E6F6 G4F4 A2A1 E5F5 A3A4 C2D2 E1E2 C5C4 A5A6 B1A1 G6G5 F2F3 E3E2 G2F2 C3D3 G4F4 D1D2 A3A2 D4C4 F4E4 G3G4 D1D0" />
    <trip id="6" depart="6.00" from="D2E2" to="C0C1" via="A4B4 A5B5 E5D5 E5F5 F6F5 A5A4 E1F1 A5A6 C4D4 D0E0 B3A3 E5D5 D2D3 E5D5 G6G5 G0G1 A1A2 F2E2 C5C4 E4F4 G3F3 A4A5 D3C3 C6C5 F2E2 D4E4 C5D5 E6F6 D0D1 F6E6 B2B3 C1D1 F5F6 C3C4 F5G5 F6E6 D3C3 E4F4 B1C1 B4B3 B3B2 G3F3 C4C5 F5F4 B1A1 B1C1 C6C5 E4E3 F2G2 G5F5 D2E2 A5A4 B5B6 E1D1 A5A6 C4D4 E1F1 B0A0 E0E1 F6G6 B6A6 E3F3 A4A5 E1E2" />
    <trip id="7" depart="7.00" from="F4F3" to="E0E1" via="F2G2 C4B4 E2E1 C6B6 D5D6 C5C6 B6C6 F2E2 C5C6 D1D0 C4B4 B2B1 B3B4 G2G3 G0F0 D3D4 A5B5 D5C5 F0F1 B5B6 E6F6 D3D2 E6F6 E0D0 D3C3 A6B6 G3G4 C5C4 E2E3 B6B5 D6E6 E6F6 A6B6 E5E6 D3C3 G6G5 B0C0 D3D4 F4F5 D4D3 F2G2 A1A0 F4E4 D5D4 E3F3 D0C0 F4G4 F0E0 F5G5 C1D1 G0F0 G5G4 F2E2 C2D2 F6F5 F2F1 B2A2 E6F6 G3G4 E1F1 C1C2 F0G0 B2A2 C3C2" />
    <trip id="8" depart="8.00" from="G2G3" to="C5D5" via="F3G3 F2G2 F4E4 E5D5 F3E3 F5F4 A3B3 E5E6 B4C4 F1E1 A4A3 F0G0 E5E6 B2C2 B3C3 A2A3 B1B2 B4B5 G4G3 E6E5 E3E4 B1B2 E2E1 D1E1 C3C4 C3C2 B3B4 A5A6 F2F3 E6E5 G4F4 C6C5 E1D1 F4F3 A0A1 B6C6 A1A2 F0F1 A4B4 G2G3 B2A2 E1E0 F1F2 E4E5 C1B1 D6D5 E3D3 G2F2 D1D0 D1D2 E5E6 B4B5 F3F4 A6A5 C1D1 C2D2 D4C4 C2C1 B4B3 F6G6 E0D0 C2D2 D4C4 G2F2" />
    <trip id="9" depart="9.00" from="A5B5" to="C1C0" via="G6G5 C6D6 A4A5 F4F3 F5E5 E2E3 C6C5 D3E3 E5E6 C1C0 B6C6 D6D5 G5G4 F4F3 B2C2 C5D5 A3A4 E3F3 B1C1 D4C4 G1G0 C3B3 A3A2 F1F0 E1F1 C6C5 F6F5 C1C2 A4A3 E3E4 E1F1 A4A5 F5E5 G6G5 C3C4 E6D6 B6A6 F0E0 D5C5 E4E3 A6B6 F3E3 D3D4 C2B2 B6B5 G5F5 B4B3 D2E2 G5G6 D2E2 F6E6 C0C1 D6D5 B4B3 B2B3 C1C2 D2D1 D4E4 F6E6 E3D3 D6E6 C4C3 E3F3 C5D5" />
    <trip id="10" depart="10.00" from="E4D4" to="D0E0" via="E4E3 D5D4 D2C2 G2F2 C4C3 E4F4 E1E0 C6B6 F6E6 D2E2 E2E3 D2D1 A1B1 E0D0 F2F1 D3D4 C5C4 D3D2 D3D4 D3C3 F4F5 F4F5 D0D1 F6F5 D0E0 E4E5 A5B5 D1D2 D1E1 E6F6 E1F1 C5B5 C4C5 C3D3 B1B0 E1E0 A0B0 G6F6 F1E1 E4E3 C1C2 B0B1 A2A1 A4A5 A6B6 D5D4 D3D2 A5B5 D4C4 E5F5 E3E4 D0E0 E4E5 A5B5 E2D2 D6C6 F3G3 B5A5 G4G3 G5G4 B5B6 A6B6 D4D3 C3B3" />
    <trip id="11" depart="11.00" from="B6B5" to="A5A6" via="A3A4 G6G5 G3F3 E6D6 B4B3 F1F2 F5F6 C2C3 C6B6 E0D0 F5G5 B1B0 E2E1 B1B2 C2C3 E5E6 D6E6 G2F2 D6C6 D0C0 G2F2 F3F2 B5C5 D5D6 D6D5 D5C5 F3F4 D4E4 A1A2 C5B5 D6C6 B3B4 G0F0 F3E3 F5F6 G5G4 E5E6 A4A5 A2A1 C5B5 F0G0 G6F6 F3G3 D2D3 E3E2 D6C6 E6E5 B6C6 C3D3 B0C0 B4A4 D3C3 B1C1 B5C5 B4A4 C5B5 B3B4 B2B3 B5B6 D3D4 F5F4 E6F6 F5E5 B2B1" />
    <trip id="12" depart="12.00" from="E2D2" to="F5F6" via="G2G1 G4G3 D2C2 E2E3 B3C3 E4F4 E6D6 G5G4 B5A5 F3G3 A0B0 E5F5 E3D3 B4B5 D2E2 B6B5 B6A6 B2A2 D1D0 A2B2 F1G1 F4G4 D5D4 C1C0 D2D1 B3A3 B2A2 E2F2 C5D5 C6B6 E5F5 A5B5 A4A5 G1G0 D4D3 D3D4 D4C4 F0G0 D3D4 F5F6 B0B1 D4E4 G5G6 G0G1 C3B3 E2E3 D4D3 E6E5 B4B5 G5G4 C1C2 A4A3 D3D2 D2D1 B1A1 E6F6 B2A2 C3B3 C4C5 C3B3 C3D3 C2C3 B0A0 F6E6" />
    <trip id="13" depart="13.00" from="F3F2" to="G6F6" via="D6C6 C4C3 E1E0 E5E6 D4E4 B0B1 B4B3 G3F3 F4F3 A4A3 C3C4 B3B4 D3D2 E6E5 F4F3 G2G3 F2F3 F6G6 D4C4 A2A3 B1A1 D3C3 G3F3 B4B5 C1B1 G4G5 A3A4 C6D6 D3D2 F4E4 A0B0 E5F5 C1B1 D4D5 B2C2 C3D3 E3F3 A2A3 E4E3 B1B2 D2C2 F5F6 G3F3 G3G4 B4B5 G3G4 E6D6 E0F0 E6D6 G5G6 C5C6 G2F2 C1B1 E4E3 A5B5 A1B1 G4G5 C4C5 B3B2 E0F0 G1G2 C5C6 C2C3 E6D6" />
    <trip id="14" depart="14.00" from="B2B1" to="D3D2" via="G5G4 G2F2 C3C4 G6G5 B6A6 B5B4 B4B3 B1C1 F6G6 B0C0 D3E3 A2A1 E4E3 B4C4 C1C2 C1C2 E4E5 A4A5 D4C4 B5A5 C2B2 E3D3 F4F3 F4G4 F3F4 B3B4 F3E3 E2E3 G2F2 G3G4 A2A1 F2E2 F2E2 C4C5 D3C3 F4F3 F0F1 B4C4 C4C5 B1B0 G4G5 G3G2 G2F2 B5B6 F5G5 F4G4 G0F0 C4C3 G5F5 D4C4 E6E5 F4F3 F5F6 A1A2 B1B2 G0G1 A5A6 E5E4 F2F1 F3G3 A5A6 A6B6 E3E4 C6D6" />
    <trip id="15" depart="15.00" from="C6D6" to="E6F6" via="G5G6 F2F1 G2G1 E3F3 E6F6 D6D5 D1D0 F6E6 A1A0 E0F0 G5F5 F6G6 E5E4 F4E4 D3D4 D0D1 B5A5 B5C5 G1G2 C3B3 C0C1 C1D1 B4B3 B6A6 C4C5 A6B6 A3B3 E6D6 B4A4 E1D1 F1F2 D2E2 D0D1 G6G5 B1A1 F6G6 F1F0 E2F2 E1E0 C4D4 B3A3 E4D4 E5E4 E0E1 B2B1 F1F0 A5A4 F6F5 E1E0 E1E2 E5E4 F4E4 B3B4 B5B4 F5G5 C4B4 G4G3 F6E6 B2A2 F3G3 B5B4 C5C4 G0F0 B2B3" />
    <trip id="16" depart="16.00" from="C5C6" to="B0B1" via="A5A4 C0B0 G3G2 B5A5 B3B2 A5A6 B5A5 A3A4 E1E0 E6F6 G5F5 E6F6 B1B0 E5F5 C5D5 B3A3 B6A6 E0F0 E4F4 D0E0 E2D2 C6C5 F1G1 E5D5 B4B5 F2F1 C2C3 B3C3 D4D3 E1E2 B3B2 G1G0 B6C6 A3A4 C6C5 A5A6 F1F0 E4E3 F1F0 G4G5 A2B2 E3E2 B4B3 A3A4 F3G3 D1D2 F1G1 C1C0 C1C0 C2D2 F2F1 G5G6 B3B2 D1D2 C5B5 C3C2 F5E5 D2C2 G1G0 C0B0 D0D1 D4E4 E6D6 E6F6" />
    <trip id="17" depart="17.00" from="E2D2" to="B1B2" via="D3E3 D2C2 D4C4 C4C3 F1F2 E5E4 G6G5 F5G5 B0B1 E6F6 G6G5 B2B1 C2B2 D0D1 B1B0 A3B3 F1F2 A1A0 B6A6 D4C4 D4C4 F2F1 C0B0 D3C3 F5F6 F5G5 C5D5 C5C6 B1C1 C3C2 C5B5 C6C5 C1B1 G3F3 D4C4 F1E1 D1D2 E5D5 B1B2 G1F1 D0C0 E6D6 C0C1 C2C1 B1B2 B5B6 E6F6 E5E4 D5D6 D1E1 A2B2 C6D6 A4B4 C2C3 D1D0 D0D1 D0D1 A0B0 E2E3 E3E2 F4E4 E2D2 D5D6 D1D2" />
    <trip id="18" depart="18.00" from="B6A6" to="F6F5" via="D5E5 G3G4 D2E2 D3D2 F6E6 E3F3 F4E4 F0E0 D2D3 G5F5 A0B0 F0F1 E1D1 D3C3 C2B2 B6B5 C5B5 C4B4 A2A1 F3F2 B3A3 G1G0 E4F4 F0G0 B0A0 F3E3 E6D6 E3E4 D5C5 D1D0 C1C0 B1A1 E6E5 C2D2 A1A0 B1C1 B5B6 F6F5 G4G5 B1B2 D3E3 B3A3 G5F5 A5A4 F2G2 B3B2 A3A2 F0E0 D0D1 G2F2 B0C0 B5A5 B6B5 E2D2 D6D5 B4B5 E2F2 G3G4 C4C5 D1C1 G3F3 G1G0 D6E6 E6E5" />
    <trip id="19" depart="19.00" from="E1E0" to="B4A4" via="B1C1 C3D3 F4F3 G3F3 E4F4 C1C0 C6C5 D4C4 G3G2 B2B1 D4E4 D4E4 A5B5 G4F4 B3B4 A5B5 F1F2 C3C4 D5E5 E4E5 B2A2 G5G6 F1F2 A5A6 B6A6 C2D2 F1G1 A1A0 G5G4 C1C2 A6B6 D0D1 C3C2 F5F6 G1F1 A3B3 B6A6 E2E1 C2C1 D4C4 F3E3 E1E2 E5F5 F1E1 E3E4 F6G6 F2G2 F0E0 G6G5 D5E5 B5A5 E2E3 D0D1 G3G2 C1C2 F6E6 F5E5 G2G1 D1C1 B3C3 B1C1 G4F4 G5G4 A1A2" />
    <trip id="20" depart="20.00" from="F5G5" to="C0D0" via="G2F2 D2D1 E3D3 D3D4 G1G0 D2D1 D3C3 A0A1 A2A3 C1B1 E2E1 G0G1 E4D4 B0A0 B5B6 A3A4 F3F4 C3D3 D6E6 B4B5 C3D3 A4A3 F6E6 G0G1 G0G1 E0D0 B5C5 A2A3 A2A1 D0E0 G4G5 F2F1 D5C5 G1F1 A5B5 G2F2 B4B3 G1F1 A6A5 D3C3 F1G1 C4C5 B4B3 D3D4 D1D0 B1B0 C4B4 E6F6 F3E3 F1F2 C4D4 E3F3 B6B5 B5B6 F3E3 E3D3 D2D1 B4C4 G1G0 F1F2 D0C0 G6G5 B6C6 B1A1" />
    <trip id="21" depart="21.00" from="E4F4" to="B1B2" via="C6C5 A5A4 A5B5 D1C1 E5E4 D5D4 A2A1 C4C3 B1B2 F2F3 G3F3 E6F6 A4A3 E0F0 F0F1 F1E1 C4B4 C1D1 C1D1 E3E4 E2F2 D5C5 D4C4 A4A5 G2F2 C0C1 B4B3 F2F3 A5A4 E2D2 A3B3 C5C6 B0B1 A3B3 D5D4 F5F6 F0E0 B3B4 A0B0 B3C3 B0A0 C4C5 D0D1 D2D3 G4G3 B4A4 C2D2 D4D5 F4E4 E6F6 G0F0 D4E4 A3B3 A0B0 B6C6 F0G0 G6F6 G4G5 D5D4 D0D1 B0C0 A3A4 E4E3 F1F2" />
    <trip id="22" depart="22.00" from="E5E4" to="F2F1" via="C3C4 G5F5 B6C6 A4A5 E4D4 D3C3 B0B1 A1B1 B2B1 B0B1 E3F3 E4F4 F5G5 A1A2 G6F6 D2D3 G5G4 E6D6 B2C2 E2E3 C5C4 C2C1 C0C1 C6C5 F2G2 C2D2 B1B2 A6A5 F6F5 C1B1 D3E3 E5D5 F0G0 G2F2 B6B5 F4E4 B3B4 B2C2 A4A3 E2F2 C0C1 A5A4 E3F3 E1F1 C5C4 C0B0 E5F5 D2C2 F2F3 D1C1 D5D6 B1A1 F6E6 B0C0 E6F6 B2B1 E6F6 D5C5 G3G4 G0F0 D5D4 G5F5 C5D5 C2C1" />
    <trip id="23" depart="23.00" from="F2F1" to="E0F0" via="C4C3 F1G1 C4C5 E6E5 G1G2 E2E1 C3B3 F3G3 F1G1 C4C5 G3G4 A0B0 G4G5 F6E6 G2G3 B3C3 C4B4 D3E3 A3A2 G5G6 A2A1 E2E3 G6F6 E1E2 D2E2 D5C5 E0E1 D6C6 G5G4 A5A4 D5D4 D2C2 E2E1 E4E5 G3G4 D4E4 C3B3 A6B6 E4E5 G2F2 D1D0 B2B3 E6F6 D2D1 A2A3 C6D6 F3G3 B2B3 B4B5 E0F0 E1D1 A0A1 B4B3 B0A0 B4B5 F4G4 G2G1 A2B2 G2F2 A1B1 D5E5 C4B4 C5C6 D2D3" />
    <trip id="24" depart="24.00" from="A4B4" to="E5F5" via="E6D6 G5F5 E4E3 F4F5 F0G0 B4B5 D3E3 E0F0 E3E4 B1B0 B5B4 B4B3 A6A5 B1A1 E6E5 B0A0 D6D5 C0B0 F2F1 F0F1 D0C0 F5F4 E5E4 C3D3 F6G6 C5D5 E5D5 B6A6 C4C5 D5C5 F5G5 B6A6 B3C3 D2E2 B5C5 F0F1 F6G6 C4D4 G4G5 F1F0 B5B4 C2B2 E5E4 F2E2 D5E5 G4F4 A6A5 B4B5 G3F3 G1F1 D5D4 G3G2 G3G4 G5G4 C3B3 C6B6 B0A0 F5F4 C6B6 D1C1 D6C6 E4F4 E2D2 E6E5" />
    <trip id="25" depart="25.00" from="C5C4" to="F0G0" via="E6D6 A5B5 E6E5 C0B0 G5G4 C3D3 G6G5 C2C3 C4C3 A3A4 E1E0 D6E6 F4G4 D3C3 D5C5 B0A0 B5C5 E3F3 D0D1 G6G5 G0F0 C5C4 C6D6 B0B1 E6E5 B0A0 C0B0 F1F2 C4D4 F1F2 B0A0 B1B2 B0B1 D2D3 D6C6 B3C3 F3F2 B2B1 B3A3 B5B6 F4F5 G1G0 C1C2 E1D1 A3A2 C5D5 C1C0 D3D2 G1F1 G5G6 E0E1 C6B6 C4C5 F1E1 D2D3 D3D4 B2A2 B2C2 C3D3 E0F0 D0C0 C2C3 B6A6 D5D6" />
    <trip id="26" depart="26.00" from="B1A1" to="C5B5" via="D2C2 D5C5 G3G4 B3B4 C3B3 C1C0 F5G5 F1E1 F5G5 C5D5 C1C0 C4C3 D5E5 D2D1 B1A1 A3B3 G2G1 F2F3 C4C5 C3B3 A3A2 G1G0 F2F1 E5E6 C4D4 B4B3 D4C4 B1C1 B2B1 B4A4 G5G4 C6D6 D4D5 E2D2 D6E6 C5C6 A3B3 E0E1 F0E0 D3C3 D6E6 B4B5 F4E4 F1F2 D0E0 C6C5 B0A0 A0A1 G3G2 D2D3 F1F2 B6A6 D4D3 A3A4 G4F4 D2D1 F4G4 G4F4 E2E3 F2E2 F2F3 D0D1 B2B1 F4G4" />
    <trip id="27" depart="27.00" from="B5C5" to="F3E3" via="A5B5 E4F4 A5B5 E0E1 C2C1 F3E3 F3G3 D6C6 C3C2 E3E2 C4B4 G1G0 D0D1 D2D3 G0F0 D3D4 D3E3 D5C5 G1G2 G0F0 D4D3 A3A4 C5D5 D0E0 D4D5 E0E1 D5C5 B3C3 C1B1 B2B1 B1B0 C2C3 B4B3 A1A0 B4B3 D2C2 E0F0 G5F5 F1F0 E5F5 D0C0 D3C3 G1G2 C0C1 E6D6 E0F0 A4B4 F2F3 C3B3 E6F6 D1E1 A2A1 C0C1 B4A4 D5D6 G4G5 A5B5 D0C0 D0E0 G5F5 B6B5 G6F6 D0C0 C6D6" />
    <trip id="28" depart="28.00" from="F6E6" to="B4B3" via="C2D2 F3E3 B6A6 E2D2 D4C4 E2E1 D5C5 G3F3 B2C2 F3F2 A2A1 B2B1 E0D0 C6B6 B3B4 C6D6 D0E0 D5D6 B3A3 A4B4 D5D4 E6D6 F6F5 A3A4 B1A1 B0B1 D2D1 D0C0 F0G0 D3D4 A5A6 F5G5 E6E5 B2B3 E3E4 F4F3 F6E6 B3C3 D1D2 E0F0 G5G4 G4G3 F4G4 G0G1 G1F1 G6F6 A2B2 B3A3 F2F1 F6F5 D4E4 B0A0 D5E5 E3F3 C2C3 B4C4 D6D5 F4E4 G2G3 G6F6 G0G1 G4G5 A1B1 F5F6" />
    <trip id="29" depart="29.00" from="A1A0" to="B0A0" via="E3E2 B5C5 G6G5 F1E1 B5A5 F1F2 D3E3 A2A1 E1E0 D1E1 D3E3 E6F6 G5G4 C0D0 E5E4 B4A4 G4G5 E3E2 C5C4 A0B0 A0A1 C5D5 C4C5 B3C3 C5D5 C4C3 B1C1 E0D0 E4D4 A5A6 D1E1 A0A1 E3F3 B5C5 C0C1 A5A4 F5E5 C0D0 C2C1 F1F0 E0F0 D5D6 E3F3 E2E3 D1C1 F3F2 E2E1 A1A0 C4C3 A2A1 D0E0 B2A2 D5E5 F4F5 D3D2 F0E0 D4D3 C0C1 A5A6 D2D1 E4E5 E6F6 D3D4 B1C1" />
    <trip id="30" depart="30.00" from="A1B1" to="F5G5" via="F3F2 E0F0 A1A2 G1G2 F3F4 D4E4 G1G2 B4A4 G5G6 B4A4 A6A5 E3E2 C1C0 B6C6 B5B6 D1C1 A5A6 B0A0 E3F3 B3C3 A3A2 F4F5 F5E5 C6B6 E0E1 E4F4 F1F0 D0C0 B1A1 C2D2 A1A2 F1G1 D3C3 A3A2 D2C2 A4A5 B3C3 E1E2 D3D4 D3C3 G0G1 D0E0 A5A6 A6A5 F2F3 D4C4 A5A6 G1F1 D5C5 B1B2 G4G3 E0F0 C3C2 G1G2 C4C3 B0B1 G6G5 A1B1 A6A5 A3B3 A1A0 B2B1 B3A3 D4E4" />
    <trip id="31" depart="31.00" from="C6D6" to="F0E0" via="E6D6 D1C1 E6F6 F3F4 E2E3 C4D4 C1C2 C2C3 F3G3 G4G3 B2B3 F6F5 E2E1 D4C4 D2D1 C0C1 G2F2 C5B5 E0D0 E5F5 B2B3 B2C2 C0C1 B5C5 B1B0 C4D4 D4E4 D4C4 E5F5 E3D3 B6A6 E1D1 E4E3 F0F1 G4F4 B1B0 C4C3 E3D3 A5B5 G3G2 B4A4 C6C5 F0F1 D2D1 G5G4 D0C0 G3F3 B6A6 F6G6 D0E0 D2D1 C5B5 G0F0 G0F0 E5F5 C4B4 G0F0 A0B0 C2B2 C0D0 B0B1 C3B3 A1A0 D1D2" />
    <trip id="32" depart="32.00" from="A1B1" to="E6D6" via="B1C1 C2C1 D1D2 D6C6 E2F2 D0C0 D3E3 F5G5 E5E6 B2A2 A3A2 G2G3 B1A1 B2A2 B1A1 G5G6 F1F2 A4A3 C1C0 F0G0 B3B4 C6D6 G4G5 C6C5 B6C6 B0B1 A5A6 E6F6 B6A6 A4B4 B3B4 E2D2 F4E4 E5E6 B3A3 E1E0 B6A6 F1F2 E5F5 F5G5 A5A6 B2C2 A1A0 B1C1 F2E2 D5D6 D1C1 E5E6 G0F0 C0B0 A5A6 G1G2 F6G6 E0D0 G6F6 A4A3 A2A3 G4G5 E2F2 G5G4 G2G1 D1C1 B5A5 A0B0" />
    <trip id="33" depart="33.00" from="G5G4" to="D4E4" via="E6F6 B2A2 F4F5 F1F2 D3D4 D5E5 A5A6 F5G5 D1C1 E4F4 C3B3 B0B1 F6F5 D3E3 F4E4 G6G5 A0B0 G4G3 D6C6 E3E2 F5F6 B2B1 C3C2 E1E2 G3G2 A0A1 A4A5 F4G4 D6C6 B6C6 B1A1 F1E1 C2B2 A4A5 D0D1 C5D5 D3D4 G1G0 E2E1 G4F4 A3A2 B2B1 E1F1 A3A2 E5E4 G2G1 E4E3 C1D1 C4C3 C3B3 B0B1 A6A5 A3A2 A1A2 E3D3 B3A3 D3C3 D3D2 D0C0 C2D2 E6F6 B5A5 A1A2 C3C4" />
    <trip id="34" depart="34.00" from="A6B6" to="C3C4" via="E1E2 E2D2 A0B0 E4F4 D3D4 E2F2 F0E0 F5E5 A1A2 C2C3 B6A6 D1C1 E6F6 E6D6 E3E4 C5D5 B5A5 B2B1 B3C3 F5G5 E6F6 E1E2 D4E4 A4A5 E6F6 B2A2 A1B1 G2G1 C0B0 B6B5 F5F4 E3F3 G2G3 A1A0 G3G2 B1B2 B4C4 E2E1 E4F4 C2D2 B6B5 A2A1 F6F5 F1G1 F3E3 C3C4 E0E1 G5F5 C5B5 F6E6 E6F6 F6E6 D1E1 F6F5 G1G0 E0F0 F6E6 C3C4 D6E6 E1E2 F2F1 E1F1 C5D5 D5C5" />
    <trip id="35" depart="35.00" from="E1D1" to="E3E2" via="G5F5 E2F2 G6F6 G0G1 A4A5 C3C2 G6F6 B6A6 B1B2 D6C6 F2G2 F4F5 F6F5 E1F1 B5B4 C2C3 F0F1 B3B2 B5B6 F4F5 E1E0 C4B4 E1F1 B1B2 D0D1 B1B2 A3B3 B4B5 C2C1 E5D5 F3F2 B0A0 B3B4 D5D6 G2G3 A2A1 A4A5 D3C3 A2A1 C1C2 D1D0 D3C3 A0A1 G6G5 C6C5 D5D6 A4B4 E5E4 G5G4 A1B1 E5E4 D0D1 B2C2 A2B2 B6B5 B1B2 E6E5 D0D1 D1D0 C6D6 G2F2 G3G2 A1A0 F2F3" />
    <trip id="36" depart="36.00" from="F2E2" to="C0D0" via="A3A2 C2D2 A4A5 D5E5 C1C2 C4C5 D2D3 A5A4 C4D4 B4A4 D5E5 A3A4 D1D2 D5D4 D2C2 G1F1 D2E2 F4G4 B5B6 F3F2 B0B1 C2B2 G4G5 D6C6 G3G4 F6G6 G1G0 A4A3 F0G0 F2G2 A0A1 D4C4 E5E6 E1E0 A2B2 B3B2 F5F4 B0B1 A5A6 A1A0 F6G6 B2A2 G3G2 E1E2 D3D4 E5D5 A6B6 F4F3 C1C2 A3A4 A5A6 D1C1 F4G4 G4F4 E0D0 C1C2 G6G5 C6B6 C3B3 A5A6 B0C0 E1E2 C3D3 A4A3" />
    <trip id="37" depart="37.00" from="G4G5" to="F6F5" via="A2B2 D3E3 E1E2 B1C1 D4D5 G4G5 B2B3 D1D0 B5A5 A4A3 A5B5 C0D0 E5D5 A5B5 C5D5 F1F0 D3D4 G2G3 D1D0 E2F2 F1E1 D4D3 D0D1 D0E0 C1C0 F6F5 D2C2 C4C5 E6D6 D2C2 B3B4 E5D5 F5F6 C5C4 C3D3 D4D3 D0C0 E3D3 D3D2 F2E2 B0A0 D5D4 A2A1 E5E4 D2C2 C3B3 A0B0 E3F3 B0C0 G0F0 A5B5 G0F0 C3B3 D3C3 G2G1 B3C3 B1B2 C4C3 B4A4 A5A6 C6D6 E3D3 C6C5 D5D6" />
    <trip id="38" depart="38.00" from="B0B1" to="C5C6" via="F2G2 D0E0 C4C3 D0D1 D0D1 D0C0 F2F1 E0E1 C5C6 C4C5 F3E3 C2C3 F1F2 B5B6 B4A4 A5A6 E6E5 E1E0 D5D6 G1G2 F4E4 E5F5 C5D5 C5B5 E0E1 C3B3 E4E3 C6C5 A0B0 F5F4 E0E1 B1B0 A3A2 B4B3 E5E4 D2C2 E5D5 E3D3 C2C3 F6G6 A1A2 D1D2 B5B4 F1F0 A5A4 D6E6 D5C5 E3E2 C1C2 F3F2 C5D5 G4F4 A4B4 E1E2 D3E3 B1A1 G3G2 E5D5 D0C0 A5A6 A1A2 E2E1 D4D5 B4C4" />
    <trip id="39" depart="39.00" from="C1D1" to="A1A0" via="D6D5 C6B6 B1C1 D3D4 F0F1 E4E3 F3E3 B2B1 B4C4 C4C5 D2E2 E3D3 E1F1 C3C4 B0C0 D5D4 C2B2 F1F0 D1D0 A3B3 G4G3 B2B1 E6E5 E5D5 G0F0 E3E4 E3E4 D0D1 A3A2 A1A2 G1G0 D5C5 A1B1 B3A3 C5D5 G2F2 C4B4 D1E1 C1C2 D2D1 G6G5 E3F3 B6C6 G5F5 F5E5 F3F2 D5C5 D1D0 E3E4 D1C1 C5C4 B6A6 F3F4 E1E2 C2C3 E0F0 A5B5 G1G2 F1F0 B4A4 C4C3 E5E4 D1C1 A2A3" />
    <trip id="40" depart="40.00" from="E4E3" to="A5A6" via="E1F1 G2G1 C3B3 C5B5 F2F3 F2E2 E4F4 D1E1 G5F5 E2F2 F5E5 C4B4 E5F5 C1B1 C0B0 E0D0 E0D0 F3G3 A3A2 F1F2 B6C6 G6G5 B4C4 G6G5 F2E2 B0C0 G5G6 F3F2 A3A4 A0A1 F3E3 D6D5 G2F2 F5G5 D4D5 B2B3 B1A1 B6C6 C2D2 D6E6 F3E3 C6B6 B3A3 F4E4 B4B3 E3D3 F1G1 F5E5 D1D2 D5D6 D6D5 G3G2 A2A3 B4B5 F3G3 D1E1 A2A1 B6C6 B1B0 E6F6 G3F3 D4D5 A1B1 C3D3" />
    <trip id="41" depart="41.00" from="C6D6" to="G3G2" via="C1B1 C1C0 D5D6 G3G4 A5A4 C5C4 C4B4 G4G3 C2B2 G5G4 E0E1 A2A3 D4E4 A4A3 C1C0 B5A5 B2B3 A4A3 D5E5 G3G2 D1D0 D5D4 D6E6 G3F3 F5F4 B6A6 C3B3 G2G3 D2D1 B0B1 D6D5 B1B0 D5D6 D0C0 B2C2 E4D4 E1D1 F6E6 D1D2 G3G2 A4A5 E6F6 D5E5 D2E2 A3A2 F2E2 B1A1 F5G5 A3A4 E6E5 D1D0 D5E5 G5G4 C4C3 F0E0 B5A5 F5G5 F6E6 D5D4 F0E0 C5D5 G3G4 D4D3 D6D5" />
    <trip id="42" depart="42.00" from="B4B5" to="F4G4" via="B5B6 E1D1 D5C5 D6E6 B6B5 E3E2 C6C5 C4C3 A5A6 E1F1 D0E0 F3G3 F0F1 E4E5 F0F1 A3A2 F0E0 F1F0 A3A4 D5D6 G0G1 B5C5 B5B4 A4B4 B3A3 A4A3 B5A5 G3G2 E2F2 C4C3 B3C3 D6C6 C3C4 C1B1 B1A1 B6B5 F6G6 G2G1 E0E1 B0B1 C2C1 C0D0 A3A4 G0G1 E1E0 D3D2 B5B4 D1C1 C0D0 C6B6 D1C1 B5A5 A4A3 A2A3 G1G2 D5D4 C5C4 A1A0 D1C1 D1D0 C1D1 E4D4 C5C4 D5C5" />
    <trip id="43" depart="43.00" from="E5D5" to="C2B2" via="G1F1 G0F0 F5F4 A5A4 E1F1 C2B2 C5C4 F3E3 D2C2 D4D5 E6D6 C3D3 C3C2 C0D0 C3C4 D1C1 E0D0 E4F4 C6D6 F3F4 C3B3 E2E1 C4C3 E1F1 F2E2 D2D1 G2G3 G2F2 B3A3 B4C4 C1C2 C1C0 G0F0 E6D6 B0B1 D3E3 C5C4 B2B3 F4E4 G4G3 B5B6 B4C4 G0G1 E5E4 A2A1 B5A5 B4A4 B2A2 B2B1 G3F3 B1C1 D1D0 E1E0 E0E1 A6B6 D4C4 F1F2 B3B2 D1D0 D2C2 G4G5 E5D5 B2C2 B3B2" />
    <trip id="44" depart="44.00" from="D1C1" to="F4F3" via="E6F6 D3E3 G1G0 C4C5 C4D4 D4C4 D4D3 G2G3 C3D3 C2C3 B6A6 G4G5 D4D3 F2F3 A4B4 G5G6 F3E3 C5C6 E4E3 E5E6 B1B0 G4G5 E4D4 C3C2 D5D6 F5E5 D1D2 G5G4 F6F5 E6D6 A2B2 C2C1 C4B4 G1G2 C2D2 D2C2 D4C4 F6F5 F2F1 F5E5 E1E2 C0C1 A6A5 C0D0 F2E2 F4G4 G4G5 B2B3 B1B2 A3A2 E5F5 E1E2 B6B5 C3C2 D3D2 F5G5 D5E5 A3A2 F3F4 A0B0 C0B0 E4E5 G2F2 A2A3" />
    <trip id="45" depart="45.00" from="B2B3" to="E1E0" via="C4D4 B3B4 B5B4 G5G4 G3F3 A2B2 E3D3 B6A6 G5G4 C2B2 E3E4 F4F5 D5D4 B4C4 E3F3 D3D4 C3B3 C5B5 B3B2 G5G6 E3E2 F6G6 B3B4 A5A4 G1F1 A6A5 E4E5 D4D3 D6D5 C4C5 C6B6 C2C1 D0C0 B0B1 F5E5 C4C3 A1A2 D2E2 C6C5 F2E2 E1E0 C2C3 G3F3 F0G0 D5D4 C5B5 F2E2 A6B6 G4G5 F0E0 C1C2 F6G6 C3B3 C3B3 B6B5 G6G5 D2D1 C2D2 F4F3 G2G3 A4B4 E4E5 D0D1 D4D5" />
    <trip id="46" depart="46.00" from="B4C4" to="D4D5" via="G1G0 D3D2 E2F2 B5C5 A3B3 E3E4 E2F2 D3D2 D1C1 B2B3 E2E3 D1D0 E0F0 C6B6 C6B6 A4B4 F5G5 D3D4 B0A0 C3B3 D2C2 G5F5 D3D2 A2A1 D2E2 F1E1 G3F3 A2B2 E0D0 A3B3 G4F4 E3F3 A6A5 G3G4 E5E6 C1D1 B1B2 D5D6 E6E5 E6E5 A1B1 F3G3 C5D5 B4B5 D1D0 F6F5 A4B4 B0C0 F4G4 C2D2 D4E4 E2E1 G5G6 F5E5 F1E1 B1B0 E1E2 E3E2 E1D1 F5G5 E3D3 F0F1 C1D1 F5F4" />
    <trip id="47" depart="47.00" from="A5A6" to="A3B3" via="D2D3 F3F4 E5F5 F4G4 E3D3 E4F4 G4F4 C4C3 D2D1 F3G3 A2A1 E5D5 B5B6 E0E1 D5D4 B1B0 F0F1 D2D1 E1F1 F4G4 A4A5 A0A1 B3A3 E4E3 F1E1 C5D5 C1C0 A5B5 D4C4 D5D6 A2A1 F6F5 A4B4 G3G2 G0F0 E0E1 G0G1 B5B6 E3E4 E1E2 A5B5 A4A3 C0C1 B1B2 D3D2 D4D3 A4A3 A4B4 D6C6 C0D0 G2G3 D6D5 B4B5 E3E4 G5G4 D5E5 B3B4 D1E1 D1C1 G6F6 D4C4 E1E0 A1A0 C2C1" />
    <trip id="48" depart="48.00" from="B6B5" to="C4C5" via="D0E0 D6D5 E2F2 E3D3 B1B2 D0E0 F5F4 G1G0 A1A0 F2E2 A0B0 B6A6 F0G0 F3E3 E5E4 E4E3 B3C3 G5G4 G6G5 B5A5 G5G6 E6E5 E3E2 D1D0 C5C6 G1G0 E4D4 A2A1 B1A1 D1D2 F5G5 A6B6 E6D6 B3B2 G3G2 F1E1 F0G0 F3F4 A6A5 B5A5 D1C1 D4C4 B5B6 C6D6 F2F1 B5B4 B5B4 E3E2 C5B5 A3B3 B0C0 A1B1 F2F1 E3D3 F3E3 G4F4 F0G0 C0B0 C5B5 E1F1 E0E1 B0A0 C4D4 C3B3" />
    <trip id="49" depart="49.00" from="A4B4" to="E2F2" via="D5D6 F4F5 G4G5 C0D0 F0G0 C4C5 G5F5 D6E6 F6G6 F6F5 G4G3 D4E4 B5B4 C6D6 F4G4 E5E6 A6B6 B1C1 E6E5 B1A1 C3B3 D3E3 E6E5 D3C3 E3D3 C6C5 A4B4 D1D2 F6G6 G2G3 F3G3 D5C5 D6D5 F4E4 E3E2 A0B0 A3B3 A1A0 F4F3 C3C4 G5F5 B3B4 C2D2 D4D5 D1C1 A1A2 B2B1 G4F4 G3F3 E6D6 A2A3 A1B1 G2G1 B4C4 B6B5 E4D4 E6E5 B3C3 G6F6 B2B3 D0E0 E0D0 B1B2 B1C1" />
    <trip id="50" depart="50.00" from="C3D3" to="E2E3" via="A3A2 G3F3 C4C5 B1C1 C6B6 E2F2 B5C5 C1D1 A1B1 E1F1 G2G3 C6D6 F4G4 G5G6 C3C4 G6F6 F6F5 F3G3 B6A6 A4A5 A5B5 B6B5 B2B3 G1G0 C4B4 B5B4 F0G0 A6B6 B4C4 C2D2 C3C4 E1E2 C1B1 C5B5 F0E0 B4C4 G1F1 B0A0 C2C3 G0G1 D1E1 E3F3 D6C6 D2D3 G2F2 E1F1 F0E0 D5D6 F1E1 C4D4 B2B3 F4G4 E5E6 F1G1 A3A2 A2B2 C2C3 E3E2 B0C0 G3G2 D6E6 A0A1 F5F4 D5C5" />
    <trip id="51" depart="51.00" from="A2A3" to="G4G3" via="D3C3 E0D0 F5F6 E0D0 A1B1 A1A2 D6C6 D4D5 C2C1 C4D4 B1A1 B4B5 F6E6 G0F0 C1C0 B4B5 E5E4 C4C5 E2E1 F3F4 F6G6 B3B2 C0B0 B3A3 C0D0 A3A4 E2F2 F5F6 A2A3 F3F2 B2A2 C5D5 G1F1 B1C1 G3G4 C0D0 E2D2 A5A4 B5B6 D0E0 D0C0 G3G4 C0C1 G0F0 D5D4 A2A1 D1E1 E3D3 C5C4 C2B2 A1B1 E0D0 D5D6 E1D1 C1D1 B1C1 C2B2 F5E5 E5D5 F0F1 A0A1 A4A5 F2F1 G0F0" />
    <trip id="52" depart="52.00" from="D3D2" to="F3E3" via="E3E4 C3B3 A2A1 B3A3 C2C1 C2C3 F2G2 D3D2 E6D6 F5F4 C2B2 F1G1 E2D2 C4C5 C5C6 D3D4 G1G2 F3G3 D1D2 B3C3 F4F5 A6B6 E2E3 F5F4 G4F4 E1E0 G4G3 C6D6 D6D5 G0G1 F2F1 D3D2 D2D3 A3A4 E1D1 A2A3 G4G5 B0C0 D3D2 G2G1 G6G5 D1D2 D3E3 A4A3 C2D2 B5C5 C2C1 B1B0 G4G5 A4A5 E6E5 D6C6 E6E5 C1C0 C6D6 E2E3 F4G4 E5E4 C5D5 D3C3 E5E4 B6A6 F0G0 D6D5" />
    <trip id="53" depart="53.00" from="F2F3" to="G0G1" via="F4G4 B1A1 E0F0 F1G1 D0E0 C5D5 C2D2 D1D2 E2D2 F3G3 A1B1 C5B5 F2G2 D5D4 B4C4 D6E6 C6D6 B4C4 F2E2 E2D2 C4C3 G3G4 B6B5 G3F3 B4C4 C4C3 B5A5 G3G2 G3G4 F2F3 D1D0 E4D4 E2F2 F6G6 D3C3 F4F5 G4G5 F4F3 B0C0 G2G1 D0D1 G6F6 D4D5 B4B5 D4E4 F1G1 A4B4 G1G0 A5A4 D0C0 F4F3 D2D1 G2G3 F1F0 B4A4 E4F4 E0D0 E2D2 E6E5 G6F6 C6B6 B2C2 E5D5 B4C4" />
    <trip id="54" depart="54.00" from="A3B3" to="E1D1" via="C3D3 F3E3 C4C5 E4F4 F5F6 F1G1 B2C2 B3A3 A3B3 A3A2 G1G0 A3A2 A4A3 G2G3 F3G3 D4E4 F3F2 C6C5 B0A0 E3E2 E1E0 C4C3 D1D2 D2E2 D5D4 G6G5 E6D6 B2A2 D1E1 D2E2 G6G5 G2F2 C2C1 G1G0 F4F5 D0D1 G3G2 G0G1 F3F2 F2F3 F4E4 E4F4 F0G0 F0G0 D4C4 E1D1 C3B3 B3A3 D2D3 A5B5 E1F1 F1F0 G0G1 E5E4 C5D5 G1G2 B6B5 F4E4 G1F1 A0A1 A3A2 D5D6 B5B6 D3D4" />
    <trip id="55" depart="55.00" from="A4A5" to="E3E4" via="D5D4 D4E4 B3C3 D1E1 A4A3 C3D3 A3A4 F3G3 C3D3 D5E5 A4A5 C1B1 B0A0 C6D6 C3C2 F4F3 D3D4 E2D2 B5B6 D2D3 D6E6 A5A4 G6F6 D0C0 E5E6 E1F1 E2D2 G5F5 F5F6 A3A4 F1G1 G1G0 G6F6 A4A3 G3G2 B3A3 E5D5 D2D1 D0E0 B0A0 D1E1 G4G5 D0E0 A3B3 E0F0 B3C3 D5D4 C0C1 C5B5 C1C2 B2C2 G3G4 A0A1 A2B2 B3A3 E4E3 A2A3 C2C1 G4F4 B6A6 E4F4 D3D4 A3A2 D0C0" />
    <trip id="56" depart="56.00" from="G3F3" to="A4B4" via="A5A4 C5C6 C0D0 G5F5 F6F5 E6E5 B1B2 C2C1 E4F4 A3B3 C1C2 C0D0 B1B0 B3B4 B6C6 E5E4 D4C4 C1C0 F4F3 F2E2 F6G6 G3F3 G5G4 G6F6 C6C5 E4D4 F0E0 A5A4 D2D3 C3B3 B2C2 F4E4 B5B6 D4D5 G3G2 D4C4 C6D6 C6D6 B2C2 D4D3 C4B4 G2G3 F0F1 B2B1 G0G1 F0E0 E3D3 F2F3 A4A3 C4B4 B2C2 B4A4 A4A5 B1C1 G3G2 B2B3 D1C1 A5A4 G1G0 E1E0 D1D0 F6F5 F1E1 B1A1" />
    <trip id="57" depart="57.00" from="G2F2" to="F5F4" via="B3A3 C0B0 G5F5 G4G3 E5D5 B5B4 C4C5 E3F3 A3B3 E1E2 A6B6 C2D2 D3D2 C5D5 D3D4 D5D6 B6C6 F4E4 D2E2 C6B6 A2A1 E2D2 E0D0 C1C0 C4D4 F0G0 F0F1 E0E1 F0E0 E6E5 C4B4 E3D3 G1F1 A3A2 C1D1 F6G6 D2C2 G6G5 A3A4 E1E2 B6B5 E4D4 F4E4 F5F4 E6F6 C5B5 D6D5 C1D1 F4F3 F3F4 G1F1 D1E1 D4D5 B3B2 A3A4 B1A1 E3E4 A0A1 F4F3 C3B3 F4E4 B2A2 B5B4 E2F2" />
    <trip id="58" depart="58.00" from="B2A2" to="A3A2" via="A3B3 E5E4 F1G1 B4C4 B4C4 C5B5 F5F4 E6E5 E4D4 A5B5 E0E1 G5G4 E0E1 A5A4 B5B4 B6B5 E0F0 A6B6 F0F1 C6C5 C0D0 F4G4 G5G4 D0C0 F6E6 D6E6 F4F3 F4E4 C1C2 C3D3 D1C1 E0F0 E2F2 B1C1 E3F3 A5A4 F1G1 C2D2 G0G1 C6D6 A0B0 F1E1 F1G1 F5G5 A4B4 B6B5 D1E1 C6B6 E5E6 D0D1 B5C5 F3F2 G4G3 F1F2 B4A4 B1B2 D1D2 F0F1 E4D4 E1F1 F2F1 D6D5 G5G6 D4D3" />
    <trip id="59" depart="59.00" from="E3E2" to="D1C1" via="B4A4 B5B4 B0A0 A4A5 F2E2 D4E4 B6B5 E3E2 B5B4 C2D2 D1D2 E0E1 D6E6 G0G1 F0G0 B1A1 F0G0 C2B2 D3D4 B3B4 B3C3 B1A1 A3A2 F4E4 A4B4 F3G3 D2D1 F1F0 C6B6 C2C1 G1G2 G2G1 F4F5 B3B4 F4F5 A4B4 E6F6 E5E4 C5C6 D5D6 B5C5 A4A3 A1B1 G5F5 G5G4 D6E6 C2B2 E2E1 C3C4 A2B2 A6B6 B6B5 F0G0 C3D3 B4C4 C0D0 C2C1 C2B2 F1F0 E0D0 D2C2 C1C0 C0C1 D0D1" />
</routes>
